File E:\PH-VILLA-283_23-9-2024\Analysis\Sap\TRAIL-08.$2k was saved on m/d/yy at h:mm:ss
 
TABLE:  "ACTIVE DEGREES OF FREEDOM"
   UX=Yes   UY=No   UZ=Yes   RX=No   RY=Yes   RZ=No
 
TABLE:  "ANALYSIS OPTIONS"
   Solver=Advanced   SolverProc=Auto   Force32Bit=No   StiffCase=None   GeomMod=None   HingeOpt="In Elements"
 
TABLE:  "AREA LOADS - UNIFORM"
   Area=1357   LoadPat=FC   CoordSys=GLOBAL   Dir=Gravity   UnifLoad=0.05
   Area=1357   LoadPat=CL   CoordSys=GLOBAL   Dir=Gravity   UnifLoad=0.05
   Area=1357   LoadPat=LIVE   CoordSys=GLOBAL   Dir=Gravity   UnifLoad=0.1
   Area=1357   LoadPat="WIND LOAD"   CoordSys=GLOBAL   Dir=Gravity   UnifLoad=0.08
   Area=1357   LoadPat=DEAD   CoordSys=GLOBAL   Dir=Gravity   UnifLoad=0.22
   Area=1   LoadPat=FC   CoordSys=GLOBAL   Dir=Gravity   UnifLoad=0.05
   Area=1   LoadPat=CL   CoordSys=GLOBAL   Dir=Gravity   UnifLoad=0.05
   Area=1   LoadPat=LIVE   CoordSys=GLOBAL   Dir=Gravity   UnifLoad=0.1
   Area=1   LoadPat="WIND LOAD"   CoordSys=GLOBAL   Dir=Gravity   UnifLoad=0.08
   Area=1   LoadPat=DEAD   CoordSys=GLOBAL   Dir=Gravity   UnifLoad=0.22
   Area=2   LoadPat=FC   CoordSys=GLOBAL   Dir=Gravity   UnifLoad=0.05
   Area=2   LoadPat=CL   CoordSys=GLOBAL   Dir=Gravity   UnifLoad=0.05
   Area=2   LoadPat=LIVE   CoordSys=GLOBAL   Dir=Gravity   UnifLoad=0.1
   Area=2   LoadPat="WIND LOAD"   CoordSys=GLOBAL   Dir=Gravity   UnifLoad=0.08
   Area=2   LoadPat=DEAD   CoordSys=GLOBAL   Dir=Gravity   UnifLoad=0.22
   Area=3   LoadPat=FC   CoordSys=GLOBAL   Dir=Gravity   UnifLoad=0.05
   Area=3   LoadPat=CL   CoordSys=GLOBAL   Dir=Gravity   UnifLoad=0.05
   Area=3   LoadPat=LIVE   CoordSys=GLOBAL   Dir=Gravity   UnifLoad=0.1
   Area=3   LoadPat="WIND LOAD"   CoordSys=GLOBAL   Dir=Gravity   UnifLoad=0.08
   Area=3   LoadPat=DEAD   CoordSys=GLOBAL   Dir=Gravity   UnifLoad=0.22
   Area=4   LoadPat=FC   CoordSys=GLOBAL   Dir=Gravity   UnifLoad=0.05
   Area=4   LoadPat=CL   CoordSys=GLOBAL   Dir=Gravity   UnifLoad=0.05
   Area=4   LoadPat=LIVE   CoordSys=GLOBAL   Dir=Gravity   UnifLoad=0.1
   Area=4   LoadPat="WIND LOAD"   CoordSys=GLOBAL   Dir=Gravity   UnifLoad=0.08
   Area=4   LoadPat=DEAD   CoordSys=GLOBAL   Dir=Gravity   UnifLoad=0.22
   Area=5   LoadPat=FC   CoordSys=GLOBAL   Dir=Gravity   UnifLoad=0.05
   Area=5   LoadPat=CL   CoordSys=GLOBAL   Dir=Gravity   UnifLoad=0.05
   Area=5   LoadPat=LIVE   CoordSys=GLOBAL   Dir=Gravity   UnifLoad=0.1
   Area=5   LoadPat="WIND LOAD"   CoordSys=GLOBAL   Dir=Gravity   UnifLoad=0.08
   Area=5   LoadPat=DEAD   CoordSys=GLOBAL   Dir=Gravity   UnifLoad=0.22
   Area=6   LoadPat=FC   CoordSys=GLOBAL   Dir=Gravity   UnifLoad=0.05
   Area=6   LoadPat=CL   CoordSys=GLOBAL   Dir=Gravity   UnifLoad=0.05
   Area=6   LoadPat=LIVE   CoordSys=GLOBAL   Dir=Gravity   UnifLoad=0.1
   Area=6   LoadPat="WIND LOAD"   CoordSys=GLOBAL   Dir=Gravity   UnifLoad=0.08
   Area=6   LoadPat=DEAD   CoordSys=GLOBAL   Dir=Gravity   UnifLoad=0.22
   Area=7   LoadPat=FC   CoordSys=GLOBAL   Dir=Gravity   UnifLoad=0.05
   Area=7   LoadPat=CL   CoordSys=GLOBAL   Dir=Gravity   UnifLoad=0.05
   Area=7   LoadPat=LIVE   CoordSys=GLOBAL   Dir=Gravity   UnifLoad=0.1
   Area=7   LoadPat="WIND LOAD"   CoordSys=GLOBAL   Dir=Gravity   UnifLoad=0.08
   Area=7   LoadPat=DEAD   CoordSys=GLOBAL   Dir=Gravity   UnifLoad=0.22
   Area=8   LoadPat=FC   CoordSys=GLOBAL   Dir=Gravity   UnifLoad=0.05
   Area=8   LoadPat=CL   CoordSys=GLOBAL   Dir=Gravity   UnifLoad=0.05
   Area=8   LoadPat=LIVE   CoordSys=GLOBAL   Dir=Gravity   UnifLoad=0.1
   Area=8   LoadPat="WIND LOAD"   CoordSys=GLOBAL   Dir=Gravity   UnifLoad=0.08
   Area=8   LoadPat=DEAD   CoordSys=GLOBAL   Dir=Gravity   UnifLoad=0.22
   Area=9   LoadPat=FC   CoordSys=GLOBAL   Dir=Gravity   UnifLoad=0.05
   Area=9   LoadPat=CL   CoordSys=GLOBAL   Dir=Gravity   UnifLoad=0.05
   Area=9   LoadPat=LIVE   CoordSys=GLOBAL   Dir=Gravity   UnifLoad=0.1
   Area=9   LoadPat="WIND LOAD"   CoordSys=GLOBAL   Dir=Gravity   UnifLoad=0.08
   Area=9   LoadPat=DEAD   CoordSys=GLOBAL   Dir=Gravity   UnifLoad=0.22
   Area=10   LoadPat=FC   CoordSys=GLOBAL   Dir=Gravity   UnifLoad=0.05
   Area=10   LoadPat=CL   CoordSys=GLOBAL   Dir=Gravity   UnifLoad=0.05
   Area=10   LoadPat=LIVE   CoordSys=GLOBAL   Dir=Gravity   UnifLoad=0.1
   Area=10   LoadPat="WIND LOAD"   CoordSys=GLOBAL   Dir=Gravity   UnifLoad=0.08
   Area=10   LoadPat=DEAD   CoordSys=GLOBAL   Dir=Gravity   UnifLoad=0.22
   Area=11   LoadPat=FC   CoordSys=GLOBAL   Dir=Gravity   UnifLoad=0.05
   Area=11   LoadPat=CL   CoordSys=GLOBAL   Dir=Gravity   UnifLoad=0.05
   Area=11   LoadPat=LIVE   CoordSys=GLOBAL   Dir=Gravity   UnifLoad=0.1
   Area=11   LoadPat="WIND LOAD"   CoordSys=GLOBAL   Dir=Gravity   UnifLoad=0.08
   Area=11   LoadPat=DEAD   CoordSys=GLOBAL   Dir=Gravity   UnifLoad=0.22
 
TABLE:  "AREA LOADS - UNIFORM TO FRAME"
   Area=1358   LoadPat=CL   CoordSys=GLOBAL   Dir=Gravity   UnifLoad=0.05   DistType="One way"
   Area=1358   LoadPat=LIVE   CoordSys=GLOBAL   Dir=Gravity   UnifLoad=0.2   DistType="One way"
   Area=1358   LoadPat=FC   CoordSys=GLOBAL   Dir=Gravity   UnifLoad=0.2   DistType="One way"
   Area=1358   LoadPat=DEAD   CoordSys=GLOBAL   Dir=Gravity   UnifLoad=0.22   DistType="One way"
 
TABLE:  "AREA SECTION ASSIGNMENTS"
   Area=1   Section="STEEL DECK 10 cm"   MatProp=Default
   Area=2   Section="STEEL DECK 10 cm"   MatProp=Default
   Area=3   Section="STEEL DECK 10 cm"   MatProp=Default
   Area=4   Section="STEEL DECK 10 cm"   MatProp=Default
   Area=5   Section="STEEL DECK 10 cm"   MatProp=Default
   Area=6   Section="STEEL DECK 10 cm"   MatProp=Default
   Area=7   Section="STEEL DECK 10 cm"   MatProp=Default
   Area=8   Section="STEEL DECK 10 cm"   MatProp=Default
   Area=9   Section="STEEL DECK 10 cm"   MatProp=Default
   Area=10   Section="STEEL DECK 10 cm"   MatProp=Default
   Area=11   Section="STEEL DECK 10 cm"   MatProp=Default
   Area=1357   Section="STEEL DECK 10 cm"   MatProp=Default
   Area=1358   Section="STEEL DECK 10 cm"   MatProp=Default
 
TABLE:  "AREA SECTION PROPERTIES"
   Section="STEEL DECK 10 cm"   Material=S52   MatAngle=0   AreaType=Shell   Type=Shell-Thin   DrillDOF=Yes   Thickness=0.1   BendThick=0.1   Color=Yellow   F11Mod=1   F22Mod=1   F12Mod=1   M11Mod=1   M22Mod=1   M12Mod=1   V13Mod=1 _
        V23Mod=1   MMod=0.0001   WMod=0.0001
 
TABLE:  "AREA SECTION PROPERTY DESIGN PARAMETERS"
   Section="STEEL DECK 10 cm"   RebarMat=None   RebarOpt=Default
 
TABLE:  "AREA SECTION PROPERTY - TIME DEPENDENT"
   Section="STEEL DECK 10 cm"   TypeSize=Auto   AutoSFSize=1
 
TABLE:  "AUTO COMBINATION OPTION DATA 01 - GENERAL"
   DesignType=Steel   AutoGen=No
 
TABLE:  "AUTO WAVE 3 - WAVE CHARACTERISTICS - GENERAL"
   WaveChar=Default   WaveType="From Theory"   KinFactor=1   SWaterDepth=45   WaveHeight=18   WavePeriod=12   WaveTheory=Linear
 
TABLE:  "AUTO WIND - USER"
 
TABLE:  "AUTO WIND EXPOSURE FOR HORIZONTAL DIAPHRAGMS"
 
TABLE:  "CASE - MODAL 1 - GENERAL"
   Case=MODAL   ModeType=Eigen   MaxNumModes=12   MinNumModes=1   EigenShift=0   EigenCutoff=0   EigenTol=1E-09   AutoShift=Yes
 
TABLE:  "CASE - STATIC 1 - LOAD ASSIGNMENTS"
   Case=DEAD   LoadType="Load pattern"   LoadName=DEAD   LoadSF=1
   Case=LIVE   LoadType="Load pattern"   LoadName=LIVE   LoadSF=1
   Case=FC   LoadType="Load pattern"   LoadName=FC   LoadSF=1
   Case=CL   LoadType="Load pattern"   LoadName=CL   LoadSF=1
   Case="WIND LOAD"   LoadType="Load pattern"   LoadName="WIND LOAD"   LoadSF=1
   Case=TEMP+   LoadType="Load pattern"   LoadName=TEMP+   LoadSF=1
   Case=TEMP-   LoadType="Load pattern"   LoadName=TEMP-   LoadSF=1
 
TABLE:  "COMBINATION DEFINITIONS"
   ComboName=DL+LL   ComboType="Linear Add"   AutoDesign=No   CaseName=DEAD   ScaleFactor=1   SteelDesign=Strength   ConcDesign=None   AlumDesign=None   ColdDesign=None   GUID=961b554f-a1e0-4653-b162-095fdd9b0cbd
   ComboName=DL+LL   CaseName=LIVE   ScaleFactor=1
   ComboName=DL+WL   ComboType="Linear Add"   AutoDesign=No   CaseName=DEAD   ScaleFactor=1   SteelDesign=Strength   ConcDesign=None   AlumDesign=None   ColdDesign=None   GUID=02dd5a2c-c2e6-495a-91b8-f4353d1c81b2
   ComboName=DL+WL   CaseName="WIND LOAD"   ScaleFactor=1
   ComboName=0.6DL+WL   ComboType="Linear Add"   AutoDesign=No   CaseName=DEAD   ScaleFactor=0.6   SteelDesign=Strength   ConcDesign=None   AlumDesign=None   ColdDesign=None   GUID=2e5cb433-87c2-4d11-a2bc-e3dd901eb796
   ComboName=0.6DL+WL   CaseName="WIND LOAD"   ScaleFactor=1
   ComboName=DL+0.75WL+0.75LL   ComboType="Linear Add"   AutoDesign=No   CaseName=DEAD   ScaleFactor=1   SteelDesign=Strength   ConcDesign=None   AlumDesign=None   ColdDesign=None   GUID=b3207c68-d650-4c92-8aa9-b4ebbf1dd060
   ComboName=DL+0.75WL+0.75LL   CaseName="WIND LOAD"   ScaleFactor=0.75
   ComboName=DL+0.75WL+0.75LL   CaseName=LIVE   ScaleFactor=0.75
   ComboName=DL+T+   ComboType="Linear Add"   AutoDesign=No   CaseName=DEAD   ScaleFactor=1   SteelDesign=Strength   ConcDesign=None   AlumDesign=None   ColdDesign=None   GUID=91350000-cf39-452c-8921-bcfa2f135ab1
   ComboName=DL+T+   CaseName=TEMP+   ScaleFactor=1
   ComboName=DL+T-   ComboType="Linear Add"   AutoDesign=No   CaseName=DEAD   ScaleFactor=1   SteelDesign=Strength   ConcDesign=None   AlumDesign=None   ColdDesign=None   GUID=12c735a5-31df-4746-ac78-21432eab7727
   ComboName=DL+T-   CaseName=TEMP-   ScaleFactor=1
   ComboName=DL+CL+FC+WL   ComboType="Linear Add"   AutoDesign=No   CaseName=DEAD   ScaleFactor=1   SteelDesign=Strength   ConcDesign=None   AlumDesign=None   ColdDesign=None   GUID=f8dfcab6-3e59-4b49-89ae-2dac8730ff21
   ComboName=DL+CL+FC+WL   CaseName=FC   ScaleFactor=1
   ComboName=DL+CL+FC+WL   CaseName=CL   ScaleFactor=1
   ComboName=DL+CL+FC+WL   CaseName="WIND LOAD"   ScaleFactor=1
   ComboName=0.6DL+CL+FC+WL   ComboType="Linear Add"   AutoDesign=No   CaseName=DEAD   ScaleFactor=0.6   SteelDesign=Strength   ConcDesign=None   AlumDesign=None   ColdDesign=None   GUID=c4b0a7bf-48ea-4636-97c4-ae9e45ac9962
   ComboName=0.6DL+CL+FC+WL   CaseName=CL   ScaleFactor=1
   ComboName=0.6DL+CL+FC+WL   CaseName=FC   ScaleFactor=1
   ComboName=0.6DL+CL+FC+WL   CaseName="WIND LOAD"   ScaleFactor=1
   ComboName=DL+CL+FC+0.75WL+0.75LL   ComboType="Linear Add"   AutoDesign=No   CaseName=DEAD   ScaleFactor=1   SteelDesign=Strength   ConcDesign=None   AlumDesign=None   ColdDesign=None   GUID=44efd181-a46c-4efd-8f66-356bcf46dae7
   ComboName=DL+CL+FC+0.75WL+0.75LL   CaseName=CL   ScaleFactor=1
   ComboName=DL+CL+FC+0.75WL+0.75LL   CaseName=FC   ScaleFactor=1
   ComboName=DL+CL+FC+0.75WL+0.75LL   CaseName="WIND LOAD"   ScaleFactor=0.75
   ComboName=DL+CL+FC+0.75WL+0.75LL   CaseName=LIVE   ScaleFactor=0.75
   ComboName=DL+FC+CL+T+   ComboType="Linear Add"   AutoDesign=No   CaseName=DEAD   ScaleFactor=1   SteelDesign=Strength   ConcDesign=None   AlumDesign=None   ColdDesign=None   GUID=fc584530-0d31-4f51-8066-cf4814fd7ad2
   ComboName=DL+FC+CL+T+   CaseName=CL   ScaleFactor=1
   ComboName=DL+FC+CL+T+   CaseName=FC   ScaleFactor=1
   ComboName=DL+FC+CL+T+   CaseName=TEMP+   ScaleFactor=1
   ComboName=DL+FC+CL+T-   ComboType="Linear Add"   AutoDesign=No   CaseName=DEAD   ScaleFactor=1   SteelDesign=Strength   ConcDesign=None   AlumDesign=None   ColdDesign=None   GUID=fc584530-0d31-4f51-8066-cf4814fd7ad2
   ComboName=DL+FC+CL+T-   CaseName=CL   ScaleFactor=1
   ComboName=DL+FC+CL+T-   CaseName=FC   ScaleFactor=1
   ComboName=DL+FC+CL+T-   CaseName=TEMP-   ScaleFactor=1
   ComboName=DEF.1   ComboType="Linear Add"   AutoDesign=No   CaseName=DEAD   ScaleFactor=1   SteelDesign=Deflection   ConcDesign=None   AlumDesign=None   ColdDesign=None   GUID=e81878a9-e538-48db-83e1-91bba1cc5b83
   ComboName=DEF.2   ComboType="Linear Add"   AutoDesign=No   CaseName=DEAD   ScaleFactor=1   SteelDesign=Deflection   ConcDesign=None   AlumDesign=None   ColdDesign=None   GUID=3374c5b6-3f33-453a-9577-673c0e11de41
   ComboName=DEF.2   CaseName=CL   ScaleFactor=1
   ComboName=DEF.2   CaseName=FC   ScaleFactor=1
   ComboName=DEF.3   ComboType="Linear Add"   AutoDesign=No   CaseName=DEF.2   ScaleFactor=1   SteelDesign=Deflection   ConcDesign=None   AlumDesign=None   ColdDesign=None   GUID=61d42ef6-e525-42d0-85ea-dcc9ea4c3b9e
   ComboName=DEF.3   CaseName=LIVE   ScaleFactor=1
   ComboName=DEF.4   ComboType="Linear Add"   AutoDesign=No   CaseName=DEF.2   ScaleFactor=1   SteelDesign=Deflection   ConcDesign=None   AlumDesign=None   ColdDesign=None   GUID=52177621-1304-4c9f-8b94-dfa3d01937c2
   ComboName=DEF.4   CaseName="WIND LOAD"   ScaleFactor=0.75
   ComboName=DEF.5   ComboType="Linear Add"   AutoDesign=No   CaseName=DEF.2   ScaleFactor=1   SteelDesign=Deflection   ConcDesign=None   AlumDesign=None   ColdDesign=None   GUID=93a668c9-b82b-4971-b7e9-da9b4fad50c6
   ComboName=DEF.5   CaseName="WIND LOAD"   ScaleFactor=1
   ComboName=DEF.6   ComboType="Linear Add"   AutoDesign=No   CaseName=DEF.2   ScaleFactor=0.6   SteelDesign=Deflection   ConcDesign=None   AlumDesign=None   ColdDesign=None   GUID=364c198e-7ed1-4136-b96b-2f91a8a51875
   ComboName=DEF.6   CaseName="WIND LOAD"   ScaleFactor=0.6
   ComboName=DEF.7   ComboType="Linear Add"   AutoDesign=No   CaseName=DEF.2   ScaleFactor=1   SteelDesign=Deflection   ConcDesign=None   AlumDesign=None   ColdDesign=None   GUID=03147196-237f-4a9b-8db8-2e5e9c8aad16
   ComboName=DEF.7   CaseName=LIVE   ScaleFactor=0.75
   ComboName=DEF.7   CaseName="WIND LOAD"   ScaleFactor=0.75
   ComboName=DEF.8   ComboType="Linear Add"   AutoDesign=No   CaseName=DEF.2   ScaleFactor=1   SteelDesign=Deflection   ConcDesign=None   AlumDesign=None   ColdDesign=None   GUID=b69a1c4f-395f-400e-94d3-2e9defdbf505
   ComboName=DEF.8   CaseName=LIVE   ScaleFactor=0.75
   ComboName=DEF.9   ComboType="Linear Add"   AutoDesign=No   CaseName=LIVE   ScaleFactor=1   SteelDesign=Deflection   ConcDesign=None   AlumDesign=None   ColdDesign=None   GUID=8a1f9ee7-d770-46e8-b7e5-43329fc4daa9
   ComboName=ENVW   ComboType=Envelope   AutoDesign=No   CaseName=0.6DL+CL+FC+WL   ScaleFactor=1   SteelDesign=None   ConcDesign=None   AlumDesign=None   ColdDesign=None   GUID=3d4366e0-221f-4752-80d2-c79bd2912abf
   ComboName=ENVW   CaseName=0.6DL+WL   ScaleFactor=1
   ComboName=ENVW   CaseName=DL+0.75WL+0.75LL   ScaleFactor=1
   ComboName=ENVW   CaseName=DL+CL+FC+0.75WL+0.75LL   ScaleFactor=1
   ComboName=ENVW   CaseName=DL+CL+FC+WL   ScaleFactor=1
   ComboName=ENVW   CaseName=DL+FC+CL+T-   ScaleFactor=1
   ComboName=ENVW   CaseName=DL+FC+CL+T+   ScaleFactor=1
   ComboName=ENVW   CaseName=DL+LL   ScaleFactor=1
   ComboName=ENVW   CaseName=DL+T-   ScaleFactor=1
   ComboName=ENVW   CaseName=DL+T+   ScaleFactor=1
   ComboName=ENVW   CaseName=DL+WL   ScaleFactor=1
 
TABLE:  "CONNECTIVITY - AREA"
   Area=1   Joint1=831   Joint2=830   Joint3=871   Joint4=872   GUID=9e3c8808-03ca-481c-a6b2-def5bc088d8b
   Area=1   Joint1=1   Joint2=829
   Area=2   Joint1=851   Joint2=850   Joint3=844   Joint4=845   GUID=13b819de-145e-4099-9e9b-d0a5c517104a
   Area=3   Joint1=838   Joint2=836   Joint3=837   Joint4=839   GUID=dcc6ec1c-3c06-454f-9e7e-ff2076dc5793
   Area=4   Joint1=895   Joint2=893   Joint3=856   Joint4=894   GUID=73261656-0f34-42fd-82ad-9e83c456bd66
   Area=5   Joint1=830   Joint2=831   Joint3=833   Joint4=832   GUID=5b70cbc9-2aab-412d-878a-924777772dbd
   Area=6   Joint1=832   Joint2=833   Joint3=835   Joint4=834   GUID=2e21406a-0538-45ef-b240-7848911784f6
   Area=7   Joint1=834   Joint2=835   Joint3=837   Joint4=836   GUID=99efb5c2-2cb9-46ff-9ae9-2e3bb9556a0b
   Area=8   Joint1=838   Joint2=839   Joint3=841   Joint4=840   GUID=a3c3cc1a-9258-4ab9-b17e-ed9f4fcf6b7f
   Area=9   Joint1=840   Joint2=841   Joint3=843   Joint4=842   GUID=4ed9da34-f736-47c4-8c65-c3b887a6d132
   Area=10   Joint1=842   Joint2=843   Joint3=845   Joint4=844   GUID=47087dd3-22c0-4652-ad4e-d42de87a0b2c
   Area=11   Joint1=895   Joint2=894   Joint3=829   Joint4=1   GUID=b342dffa-c3b3-45d4-aa55-5423e071f42b
   Area=1357   Joint1=872   Joint2=871   Joint3=869   Joint4=873   GUID=a851566c-522c-4c14-be77-ae4fbb09278f
   Area=1357   Joint1=875   Joint2=877   Joint3=879   Joint4=881
   Area=1357   Joint1=883   Joint2=885   Joint3=887   Joint4=889
   Area=1357   Joint1=891   Joint2=892   Joint3=890   Joint4=888
   Area=1357   Joint1=886   Joint2=884   Joint3=882   Joint4=880
   Area=1357   Joint1=878   Joint2=876   Joint3=874   Joint4=870
   Area=1358   Joint1=853   Joint2=852   Joint3=854   Joint4=855   GUID=46c6e208-edb2-41f7-9cc8-6fe778c703aa
 
TABLE:  "CONNECTIVITY - FRAME"
   Frame=114   JointI=826   JointJ=827   IsCurved=No   GUID=c57a1bec-759a-4308-a8ce-ad11394390e8
   Frame=115   JointI=828   JointJ=829   IsCurved=No   GUID=7283fa48-d933-4ef3-b662-5a8d0d96f212
   Frame=116   JointI=830   JointJ=831   IsCurved=No   GUID=9db9b4f6-5731-4ec8-8629-c82e7d2feec2
   Frame=117   JointI=832   JointJ=833   IsCurved=No   GUID=a91db1e0-e8cc-46ec-9b05-62967412f9d1
   Frame=118   JointI=834   JointJ=835   IsCurved=No   GUID=43167928-3254-4c03-997f-18a1ea2323c2
   Frame=119   JointI=836   JointJ=837   IsCurved=No   GUID=8c395fc6-4460-4375-a47d-507662766a50
   Frame=120   JointI=838   JointJ=839   IsCurved=No   GUID=b66eb3aa-5783-4598-8639-223fcab84f74
   Frame=121   JointI=840   JointJ=841   IsCurved=No   GUID=87d9ef87-c3bc-498e-abce-9d99a1e1fdc5
   Frame=122   JointI=842   JointJ=843   IsCurved=No   GUID=db99afc7-29e6-42c8-8223-1b5d210dae43
   Frame=123   JointI=844   JointJ=845   IsCurved=No   GUID=84362521-b85f-423b-a51c-0ea00043e2f5
   Frame=124   JointI=846   JointJ=847   IsCurved=No   GUID=324f12a1-83ba-4ceb-b1dc-10ee2e402ad8
   Frame=125   JointI=848   JointJ=849   IsCurved=No   GUID=861b0b78-ff6c-46cb-92c1-0da1f368509e
   Frame=126   JointI=850   JointJ=851   IsCurved=No   GUID=6fc34cdb-87e0-47ef-8994-c7b719eea5f9
   Frame=127   JointI=852   JointJ=853   IsCurved=No   GUID=e64a0a33-3fb9-494f-9cec-e91d609f7e82
   Frame=128   JointI=854   JointJ=855   IsCurved=No   GUID=b1d10cdf-a25c-47c3-9131-1cca0cc01c79
   Frame=129   JointI=856   JointJ=857   IsCurved=No   GUID=fc6e5a5f-65d5-4d68-9e75-5e64c9d5d768
   Frame=130   JointI=858   JointJ=859   IsCurved=No   GUID=9fede7f1-2053-4462-b930-67b97f272881
   Frame=131   JointI=860   JointJ=861   IsCurved=No   GUID=e627e28e-8c01-4518-956c-33a6316f31d4
   Frame=132   JointI=862   JointJ=863   IsCurved=No   GUID=ad1ea49b-50d2-4fae-b9ed-a222b2574eff
   Frame=133   JointI=864   JointJ=865   IsCurved=No   GUID=750ecce6-da57-4131-bb9f-bc859c8dd5c6
   Frame=134   JointI=866   JointJ=867   IsCurved=No   GUID=aaf5e72b-4d2c-4997-88c1-83c41b4de19e
   Frame=135   JointI=826   JointJ=868   IsCurved=No   GUID=865b6c02-4f9d-4476-90a2-76873964fffb
   Frame=140   JointI=877   JointJ=878   IsCurved=No   GUID=975d55db-3166-49e3-8e99-966da7692f90
   Frame=141   JointI=879   JointJ=880   IsCurved=No   GUID=625f8b00-bd82-4635-999d-5370900980c9
   Frame=142   JointI=881   JointJ=882   IsCurved=No   GUID=98a32735-f926-4126-b1df-b545ec10bc63
   Frame=143   JointI=883   JointJ=884   IsCurved=No   GUID=6385631b-8b63-406d-a6d9-198856e47dc1
   Frame=144   JointI=885   JointJ=886   IsCurved=No   GUID=50d72dea-62a7-409f-8d02-a13131ee0192
   Frame=145   JointI=887   JointJ=888   IsCurved=No   GUID=6e1558b5-e163-4601-b509-cd9bb6fd9b4f
   Frame=146   JointI=889   JointJ=890   IsCurved=No   GUID=06a86478-209d-409e-97dd-f40cfafd075f
   Frame=147   JointI=891   JointJ=892   IsCurved=No   GUID=3ab1bd0e-0d38-48a3-90fc-b68eb786917b
   Frame=148   JointI=850   JointJ=848   IsCurved=No   GUID=45adddc4-833f-4f1d-be27-6c94a92b5ed9
   Frame=149   JointI=848   JointJ=846   IsCurved=No   GUID=c6b4124b-db7b-4224-8160-15ea5fbf288a
   Frame=150   JointI=846   JointJ=844   IsCurved=No   GUID=de861e6b-4b63-4b03-9cca-6968502acb63
   Frame=151   JointI=844   JointJ=842   IsCurved=No   GUID=e92707d6-b587-4340-ad63-9a8ff776f06a
   Frame=152   JointI=842   JointJ=840   IsCurved=No   GUID=9abf018a-2c10-4490-a244-f8cb0d08f0a7
   Frame=153   JointI=840   JointJ=838   IsCurved=No   GUID=3d03dac7-597d-4bed-9b99-d1d446a65e0a
   Frame=154   JointI=838   JointJ=836   IsCurved=No   GUID=27252c54-a608-490f-bc63-a05c8a89f179
   Frame=155   JointI=836   JointJ=834   IsCurved=No   GUID=d10683f9-cf84-4fb9-8c7e-fd30f1bec2a7
   Frame=156   JointI=834   JointJ=832   IsCurved=No   GUID=4e59796c-7798-4c49-85dc-004211c0f4f0
   Frame=157   JointI=832   JointJ=830   IsCurved=No   GUID=ac60d678-eb23-4e36-b7ac-9c64fd314a86
   Frame=158   JointI=830   JointJ=826   IsCurved=No   GUID=353b3886-6875-403b-9a09-c9cf17aa064c
   Frame=159   JointI=856   JointJ=893   IsCurved=No   GUID=f99f8c9e-c878-4247-aa71-0116dc637ac2
   Frame=160   JointI=894   JointJ=895   IsCurved=No   GUID=e5386163-41c2-48a9-8422-bc90b872347d
   Frame=202   JointI=942   JointJ=943   IsCurved=No   GUID=46d67458-31dc-4d39-ad82-0a8141245428
   Frame=206   JointI=852   JointJ=854   IsCurved=No   GUID=31f73651-6a04-4ea5-b750-0de1fb10fbd9
   Frame=207   JointI=853   JointJ=855   IsCurved=No   GUID=89654e09-38f4-41be-ba44-7046e858cebb
   Frame=211   JointI=1629   JointJ=1631   IsCurved=No   GUID=5ede2ede-5bbd-4ab6-b5f8-eedfbeec6c68
   Frame=212   JointI=874   JointJ=873   IsCurved=No   GUID=46531a75-4588-49ae-8209-e69233321c3c
   Frame=213   JointI=876   JointJ=875   IsCurved=No   GUID=5e0e2a0b-62ba-455c-a874-4b374986f37b
 
TABLE:  "COORDINATE SYSTEMS"
   Name=GLOBAL   Type=Cartesian   X=0   Y=0   Z=0   AboutZ=0   AboutY=0   AboutX=0
 
TABLE:  "DATABASE DOCUMENTATION"
 
TABLE:  "DATABASE FORMAT TYPES"
   UnitsCurr=Yes   OverrideE=No
 
TABLE:  "FRAME AUTO MESH ASSIGNMENTS"
   Frame=114   AutoMesh=Yes   AtJoints=Yes   AtFrames=No   NumSegments=0   MaxLength=0   MaxDegrees=0
   Frame=115   AutoMesh=Yes   AtJoints=Yes   AtFrames=No   NumSegments=0   MaxLength=0   MaxDegrees=0
   Frame=116   AutoMesh=Yes   AtJoints=Yes   AtFrames=No   NumSegments=0   MaxLength=0   MaxDegrees=0
   Frame=117   AutoMesh=Yes   AtJoints=Yes   AtFrames=No   NumSegments=0   MaxLength=0   MaxDegrees=0
   Frame=118   AutoMesh=Yes   AtJoints=Yes   AtFrames=No   NumSegments=0   MaxLength=0   MaxDegrees=0
   Frame=119   AutoMesh=Yes   AtJoints=Yes   AtFrames=No   NumSegments=0   MaxLength=0   MaxDegrees=0
   Frame=120   AutoMesh=Yes   AtJoints=Yes   AtFrames=No   NumSegments=0   MaxLength=0   MaxDegrees=0
   Frame=121   AutoMesh=Yes   AtJoints=Yes   AtFrames=No   NumSegments=0   MaxLength=0   MaxDegrees=0
   Frame=122   AutoMesh=Yes   AtJoints=Yes   AtFrames=No   NumSegments=0   MaxLength=0   MaxDegrees=0
   Frame=123   AutoMesh=Yes   AtJoints=Yes   AtFrames=No   NumSegments=0   MaxLength=0   MaxDegrees=0
   Frame=124   AutoMesh=Yes   AtJoints=Yes   AtFrames=No   NumSegments=0   MaxLength=0   MaxDegrees=0
   Frame=125   AutoMesh=Yes   AtJoints=Yes   AtFrames=No   NumSegments=0   MaxLength=0   MaxDegrees=0
   Frame=126   AutoMesh=Yes   AtJoints=Yes   AtFrames=No   NumSegments=0   MaxLength=0   MaxDegrees=0
   Frame=127   AutoMesh=Yes   AtJoints=Yes   AtFrames=No   NumSegments=0   MaxLength=0   MaxDegrees=0
   Frame=128   AutoMesh=Yes   AtJoints=Yes   AtFrames=No   NumSegments=0   MaxLength=0   MaxDegrees=0
   Frame=129   AutoMesh=Yes   AtJoints=Yes   AtFrames=No   NumSegments=0   MaxLength=0   MaxDegrees=0
   Frame=130   AutoMesh=Yes   AtJoints=Yes   AtFrames=No   NumSegments=0   MaxLength=0   MaxDegrees=0
   Frame=131   AutoMesh=Yes   AtJoints=Yes   AtFrames=No   NumSegments=0   MaxLength=0   MaxDegrees=0
   Frame=132   AutoMesh=Yes   AtJoints=Yes   AtFrames=No   NumSegments=0   MaxLength=0   MaxDegrees=0
   Frame=133   AutoMesh=Yes   AtJoints=Yes   AtFrames=No   NumSegments=0   MaxLength=0   MaxDegrees=0
# ... 29 like lines cut
 
TABLE:  "FRAME DESIGN PROCEDURES"
   Frame=114   DesignProc="From Material"
   Frame=115   DesignProc="From Material"
   Frame=116   DesignProc="From Material"
   Frame=117   DesignProc="From Material"
   Frame=118   DesignProc="From Material"
   Frame=119   DesignProc="From Material"
   Frame=120   DesignProc="From Material"
   Frame=121   DesignProc="From Material"
   Frame=122   DesignProc="From Material"
   Frame=123   DesignProc="From Material"
   Frame=124   DesignProc="From Material"
   Frame=125   DesignProc="From Material"
   Frame=126   DesignProc="From Material"
   Frame=127   DesignProc="From Material"
   Frame=128   DesignProc="From Material"
   Frame=129   DesignProc="From Material"
   Frame=130   DesignProc="From Material"
   Frame=131   DesignProc="From Material"
   Frame=132   DesignProc="From Material"
   Frame=133   DesignProc="From Material"
# ... 29 like lines cut
 
TABLE:  "FRAME LOADS - TEMPERATURE"
   Frame=114   LoadPat=TEMP+   Type=Temperature   Temp=30   JtPattern=None
   Frame=114   LoadPat=TEMP-   Type=Temperature   Temp=-30   JtPattern=None
   Frame=115   LoadPat=TEMP+   Type=Temperature   Temp=30   JtPattern=None
   Frame=115   LoadPat=TEMP-   Type=Temperature   Temp=-30   JtPattern=None
   Frame=116   LoadPat=TEMP+   Type=Temperature   Temp=30   JtPattern=None
   Frame=116   LoadPat=TEMP-   Type=Temperature   Temp=-30   JtPattern=None
   Frame=117   LoadPat=TEMP+   Type=Temperature   Temp=30   JtPattern=None
   Frame=117   LoadPat=TEMP-   Type=Temperature   Temp=-30   JtPattern=None
   Frame=118   LoadPat=TEMP+   Type=Temperature   Temp=30   JtPattern=None
   Frame=118   LoadPat=TEMP-   Type=Temperature   Temp=-30   JtPattern=None
   Frame=119   LoadPat=TEMP+   Type=Temperature   Temp=30   JtPattern=None
   Frame=119   LoadPat=TEMP-   Type=Temperature   Temp=-30   JtPattern=None
   Frame=120   LoadPat=TEMP+   Type=Temperature   Temp=30   JtPattern=None
   Frame=120   LoadPat=TEMP-   Type=Temperature   Temp=-30   JtPattern=None
   Frame=121   LoadPat=TEMP+   Type=Temperature   Temp=30   JtPattern=None
   Frame=121   LoadPat=TEMP-   Type=Temperature   Temp=-30   JtPattern=None
   Frame=122   LoadPat=TEMP+   Type=Temperature   Temp=30   JtPattern=None
   Frame=122   LoadPat=TEMP-   Type=Temperature   Temp=-30   JtPattern=None
   Frame=123   LoadPat=TEMP+   Type=Temperature   Temp=30   JtPattern=None
   Frame=123   LoadPat=TEMP-   Type=Temperature   Temp=-30   JtPattern=None
   Frame=124   LoadPat=TEMP+   Type=Temperature   Temp=30   JtPattern=None
   Frame=124   LoadPat=TEMP-   Type=Temperature   Temp=-30   JtPattern=None
   Frame=125   LoadPat=TEMP+   Type=Temperature   Temp=30   JtPattern=None
   Frame=125   LoadPat=TEMP-   Type=Temperature   Temp=-30   JtPattern=None
   Frame=126   LoadPat=TEMP+   Type=Temperature   Temp=30   JtPattern=None
   Frame=126   LoadPat=TEMP-   Type=Temperature   Temp=-30   JtPattern=None
   Frame=127   LoadPat=TEMP+   Type=Temperature   Temp=30   JtPattern=None
   Frame=127   LoadPat=TEMP-   Type=Temperature   Temp=-30   JtPattern=None
   Frame=128   LoadPat=TEMP+   Type=Temperature   Temp=30   JtPattern=None
   Frame=128   LoadPat=TEMP-   Type=Temperature   Temp=-30   JtPattern=None
   Frame=129   LoadPat=TEMP+   Type=Temperature   Temp=30   JtPattern=None
   Frame=129   LoadPat=TEMP-   Type=Temperature   Temp=-30   JtPattern=None
   Frame=130   LoadPat=TEMP+   Type=Temperature   Temp=30   JtPattern=None
   Frame=130   LoadPat=TEMP-   Type=Temperature   Temp=-30   JtPattern=None
   Frame=131   LoadPat=TEMP+   Type=Temperature   Temp=30   JtPattern=None
   Frame=131   LoadPat=TEMP-   Type=Temperature   Temp=-30   JtPattern=None
   Frame=132   LoadPat=TEMP+   Type=Temperature   Temp=30   JtPattern=None
   Frame=132   LoadPat=TEMP-   Type=Temperature   Temp=-30   JtPattern=None
   Frame=133   LoadPat=TEMP+   Type=Temperature   Temp=30   JtPattern=None
   Frame=133   LoadPat=TEMP-   Type=Temperature   Temp=-30   JtPattern=None
# ... 54 like lines cut
 
TABLE:  "FRAME LOAD TRANSFER OPTIONS"
   Frame=114   Transfer=Yes
   Frame=115   Transfer=Yes
   Frame=116   Transfer=Yes
   Frame=117   Transfer=Yes
   Frame=118   Transfer=Yes
   Frame=119   Transfer=Yes
   Frame=120   Transfer=Yes
   Frame=121   Transfer=Yes
   Frame=122   Transfer=Yes
   Frame=123   Transfer=Yes
   Frame=124   Transfer=Yes
   Frame=125   Transfer=Yes
   Frame=126   Transfer=Yes
   Frame=127   Transfer=Yes
   Frame=128   Transfer=Yes
   Frame=129   Transfer=Yes
   Frame=130   Transfer=Yes
   Frame=131   Transfer=Yes
   Frame=132   Transfer=Yes
   Frame=133   Transfer=Yes
# ... 29 like lines cut
 
TABLE:  "FRAME OUTPUT STATION ASSIGNMENTS"
   Frame=114   StationType=MaxStaSpcg   MaxStaSpcg=0.5   AddAtElmInt=Yes   AddAtPtLoad=Yes
   Frame=115   StationType=MaxStaSpcg   MaxStaSpcg=0.5   AddAtElmInt=Yes   AddAtPtLoad=Yes
   Frame=116   StationType=MaxStaSpcg   MaxStaSpcg=0.5   AddAtElmInt=Yes   AddAtPtLoad=Yes
   Frame=117   StationType=MaxStaSpcg   MaxStaSpcg=0.5   AddAtElmInt=Yes   AddAtPtLoad=Yes
   Frame=118   StationType=MaxStaSpcg   MaxStaSpcg=0.5   AddAtElmInt=Yes   AddAtPtLoad=Yes
   Frame=119   StationType=MaxStaSpcg   MaxStaSpcg=0.5   AddAtElmInt=Yes   AddAtPtLoad=Yes
   Frame=120   StationType=MaxStaSpcg   MaxStaSpcg=0.5   AddAtElmInt=Yes   AddAtPtLoad=Yes
   Frame=121   StationType=MaxStaSpcg   MaxStaSpcg=0.5   AddAtElmInt=Yes   AddAtPtLoad=Yes
   Frame=122   StationType=MaxStaSpcg   MaxStaSpcg=0.5   AddAtElmInt=Yes   AddAtPtLoad=Yes
   Frame=123   StationType=MaxStaSpcg   MaxStaSpcg=0.5   AddAtElmInt=Yes   AddAtPtLoad=Yes
   Frame=124   StationType=MaxStaSpcg   MaxStaSpcg=0.5   AddAtElmInt=Yes   AddAtPtLoad=Yes
   Frame=125   StationType=MaxStaSpcg   MaxStaSpcg=0.5   AddAtElmInt=Yes   AddAtPtLoad=Yes
   Frame=126   StationType=MaxStaSpcg   MaxStaSpcg=0.5   AddAtElmInt=Yes   AddAtPtLoad=Yes
   Frame=127   StationType=MaxStaSpcg   MaxStaSpcg=0.5   AddAtElmInt=Yes   AddAtPtLoad=Yes
   Frame=128   StationType=MaxStaSpcg   MaxStaSpcg=0.5   AddAtElmInt=Yes   AddAtPtLoad=Yes
   Frame=129   StationType=MaxStaSpcg   MaxStaSpcg=0.5   AddAtElmInt=Yes   AddAtPtLoad=Yes
   Frame=130   StationType=MaxStaSpcg   MaxStaSpcg=0.5   AddAtElmInt=Yes   AddAtPtLoad=Yes
   Frame=131   StationType=MaxStaSpcg   MaxStaSpcg=0.5   AddAtElmInt=Yes   AddAtPtLoad=Yes
   Frame=132   StationType=MaxStaSpcg   MaxStaSpcg=0.5   AddAtElmInt=Yes   AddAtPtLoad=Yes
   Frame=133   StationType=MaxStaSpcg   MaxStaSpcg=0.5   AddAtElmInt=Yes   AddAtPtLoad=Yes
# ... 29 like lines cut
 
TABLE:  "FRAME RELEASE ASSIGNMENTS 1 - GENERAL"
   Frame=120   PI=No   V2I=No   V3I=No   TI=No   M2I=Yes   M3I=Yes   PJ=No   V2J=No   V3J=No   TJ=No   M2J=No   M3J=No
   Frame=122   PI=No   V2I=No   V3I=No   TI=No   M2I=Yes   M3I=Yes   PJ=No   V2J=No   V3J=No   TJ=No   M2J=No   M3J=No
   Frame=129   PI=No   V2I=No   V3I=No   TI=No   M2I=Yes   M3I=Yes   PJ=No   V2J=No   V3J=No   TJ=No   M2J=Yes   M3J=Yes
   Frame=130   PI=No   V2I=No   V3I=No   TI=No   M2I=Yes   M3I=Yes   PJ=No   V2J=No   V3J=No   TJ=No   M2J=Yes   M3J=Yes
   Frame=131   PI=No   V2I=No   V3I=No   TI=No   M2I=Yes   M3I=Yes   PJ=No   V2J=No   V3J=No   TJ=No   M2J=Yes   M3J=Yes
   Frame=132   PI=No   V2I=No   V3I=No   TI=No   M2I=Yes   M3I=Yes   PJ=No   V2J=No   V3J=No   TJ=No   M2J=Yes   M3J=Yes
   Frame=133   PI=No   V2I=No   V3I=No   TI=No   M2I=Yes   M3I=Yes   PJ=No   V2J=No   V3J=No   TJ=No   M2J=Yes   M3J=Yes
   Frame=140   PI=No   V2I=No   V3I=No   TI=No   M2I=Yes   M3I=Yes   PJ=No   V2J=No   V3J=No   TJ=No   M2J=Yes   M3J=Yes
   Frame=141   PI=No   V2I=No   V3I=No   TI=No   M2I=Yes   M3I=Yes   PJ=No   V2J=No   V3J=No   TJ=No   M2J=Yes   M3J=Yes
   Frame=142   PI=No   V2I=No   V3I=No   TI=No   M2I=Yes   M3I=Yes   PJ=No   V2J=No   V3J=No   TJ=No   M2J=Yes   M3J=Yes
   Frame=143   PI=No   V2I=No   V3I=No   TI=No   M2I=Yes   M3I=Yes   PJ=No   V2J=No   V3J=No   TJ=No   M2J=Yes   M3J=Yes
   Frame=144   PI=No   V2I=No   V3I=No   TI=No   M2I=Yes   M3I=Yes   PJ=No   V2J=No   V3J=No   TJ=No   M2J=Yes   M3J=Yes
   Frame=145   PI=No   V2I=No   V3I=No   TI=No   M2I=Yes   M3I=Yes   PJ=No   V2J=No   V3J=No   TJ=No   M2J=Yes   M3J=Yes
   Frame=146   PI=No   V2I=No   V3I=No   TI=No   M2I=Yes   M3I=Yes   PJ=No   V2J=No   V3J=No   TJ=No   M2J=Yes   M3J=Yes
   Frame=147   PI=No   V2I=No   V3I=No   TI=No   M2I=Yes   M3I=Yes   PJ=No   V2J=No   V3J=No   TJ=No   M2J=Yes   M3J=Yes
   Frame=148   PI=No   V2I=No   V3I=No   TI=No   M2I=Yes   M3I=Yes   PJ=No   V2J=No   V3J=No   TJ=No   M2J=Yes   M3J=Yes
   Frame=149   PI=No   V2I=No   V3I=No   TI=No   M2I=Yes   M3I=Yes   PJ=No   V2J=No   V3J=No   TJ=No   M2J=Yes   M3J=Yes
   Frame=150   PI=No   V2I=No   V3I=No   TI=No   M2I=Yes   M3I=Yes   PJ=No   V2J=No   V3J=No   TJ=No   M2J=Yes   M3J=Yes
   Frame=151   PI=No   V2I=No   V3I=No   TI=No   M2I=Yes   M3I=Yes   PJ=No   V2J=No   V3J=No   TJ=No   M2J=Yes   M3J=Yes
   Frame=152   PI=No   V2I=No   V3I=No   TI=No   M2I=Yes   M3I=Yes   PJ=No   V2J=No   V3J=No   TJ=No   M2J=Yes   M3J=Yes
   Frame=153   PI=No   V2I=No   V3I=No   TI=No   M2I=Yes   M3I=Yes   PJ=No   V2J=No   V3J=No   TJ=No   M2J=Yes   M3J=Yes
   Frame=154   PI=No   V2I=No   V3I=No   TI=No   M2I=Yes   M3I=Yes   PJ=No   V2J=No   V3J=No   TJ=No   M2J=Yes   M3J=Yes
# ... 10 like lines cut
 
TABLE:  "FRAME SECTION ASSIGNMENTS"
   Frame=114   AutoSelect=N.A.   AnalSect="HEB 300"   MatProp=Default
   Frame=115   AutoSelect=N.A.   AnalSect="HEB 300"   MatProp=Default
   Frame=116   AutoSelect=N.A.   AnalSect="HEB 300"   MatProp=Default
   Frame=117   AutoSelect=N.A.   AnalSect="HEB 300"   MatProp=Default
   Frame=118   AutoSelect=N.A.   AnalSect="HEB 300"   MatProp=Default
   Frame=119   AutoSelect=N.A.   AnalSect="HEB 300"   MatProp=Default
   Frame=120   AutoSelect=N.A.   AnalSect="HEB 300"   MatProp=Default
   Frame=121   AutoSelect=N.A.   AnalSect="HEB 300"   MatProp=Default
   Frame=122   AutoSelect=N.A.   AnalSect="HEB 300"   MatProp=Default
   Frame=123   AutoSelect=N.A.   AnalSect="HEB 300"   MatProp=Default
   Frame=124   AutoSelect=N.A.   AnalSect="HEB 300"   MatProp=Default
   Frame=125   AutoSelect=N.A.   AnalSect="HEB 300"   MatProp=Default
   Frame=126   AutoSelect=N.A.   AnalSect="HEB 300"   MatProp=Default
   Frame=127   AutoSelect=N.A.   AnalSect="HEB 300"   MatProp=Default
   Frame=128   AutoSelect=N.A.   AnalSect="HEB 300"   MatProp=Default
   Frame=129   AutoSelect=N.A.   AnalSect="HRS 90X5"   MatProp=Default
   Frame=130   AutoSelect=N.A.   AnalSect="HRS 90X5"   MatProp=Default
   Frame=131   AutoSelect=N.A.   AnalSect="HRS 90X5"   MatProp=Default
   Frame=132   AutoSelect=N.A.   AnalSect="HRS 90X5"   MatProp=Default
   Frame=133   AutoSelect=N.A.   AnalSect="HRS 90X5"   MatProp=Default
   Frame=134   AutoSelect=N.A.   AnalSect="HEB 300"   MatProp=Default
   Frame=135   AutoSelect=N.A.   AnalSect="HEB 300"   MatProp=Default
   Frame=140   AutoSelect=N.A.   AnalSect="HSS 70X5"   MatProp=Default
   Frame=141   AutoSelect=N.A.   AnalSect="HSS 70X5"   MatProp=Default
   Frame=142   AutoSelect=N.A.   AnalSect="HSS 70X5"   MatProp=Default
   Frame=143   AutoSelect=N.A.   AnalSect="HSS 70X5"   MatProp=Default
   Frame=144   AutoSelect=N.A.   AnalSect="HSS 70X5"   MatProp=Default
   Frame=145   AutoSelect=N.A.   AnalSect="HSS 70X5"   MatProp=Default
   Frame=146   AutoSelect=N.A.   AnalSect="HSS 70X5"   MatProp=Default
   Frame=147   AutoSelect=N.A.   AnalSect="HSS 70X5"   MatProp=Default
   Frame=148   AutoSelect=N.A.   AnalSect="HRS 90X5"   MatProp=Default
   Frame=149   AutoSelect=N.A.   AnalSect="HRS 90X5"   MatProp=Default
   Frame=150   AutoSelect=N.A.   AnalSect="HRS 90X5"   MatProp=Default
   Frame=151   AutoSelect=N.A.   AnalSect="HRS 90X5"   MatProp=Default
   Frame=152   AutoSelect=N.A.   AnalSect="HRS 90X5"   MatProp=Default
   Frame=153   AutoSelect=N.A.   AnalSect="HRS 90X5"   MatProp=Default
   Frame=154   AutoSelect=N.A.   AnalSect="HRS 90X5"   MatProp=Default
   Frame=155   AutoSelect=N.A.   AnalSect="HRS 90X5"   MatProp=Default
   Frame=156   AutoSelect=N.A.   AnalSect="HRS 90X5"   MatProp=Default
   Frame=157   AutoSelect=N.A.   AnalSect="HRS 90X5"   MatProp=Default
   Frame=158   AutoSelect=N.A.   AnalSect="HRS 90X5"   MatProp=Default
   Frame=159   AutoSelect=N.A.   AnalSect="HEB 300"   MatProp=Default
   Frame=160   AutoSelect=N.A.   AnalSect="HEB 300"   MatProp=Default
   Frame=202   AutoSelect=N.A.   AnalSect="HSS 70X5"   MatProp=Default
   Frame=206   AutoSelect=N.A.   AnalSect="HRS 90X5"   MatProp=Default
   Frame=207   AutoSelect=N.A.   AnalSect="HRS 90X5"   MatProp=Default
   Frame=211   AutoSelect=N.A.   AnalSect="HSS 70X5"   MatProp=Default
   Frame=212   AutoSelect=N.A.   AnalSect="HSS 70X5"   MatProp=Default
   Frame=213   AutoSelect=N.A.   AnalSect="HSS 70X5"   MatProp=Default
 
TABLE:  "FRAME SECTION PROPERTIES 01 - GENERAL"
   SectionName="HEB 300"   Material=S52   Shape="I/Wide Flange"   t3=0.29   t2=0.3   tf=0.014   tw=0.0085   t2b=0.3   tfb=0.014   Area=0.010627   TorsConst=5.85202650208333E-07   I33=0.000172845982333333   I22=6.30134083958333E-05   I23=0 _
        AS2=0.002465   AS3=0.007   S33=0.00119204125747126   S22=0.000420089389305556   Z33=0.0013050685   Z22=0.000634732375   R33=0.127533507566481   R22=0.0770036205600595   Color=Cyan   FromFile=No   AMod=1   A2Mod=1   A3Mod=1   JMod=1 _
        I2Mod=1   I3Mod=1   MMod=1   WMod=1   Notes="Added 8/12/2024 7:28:48 PM"
   SectionName="HRS 90X5"   Material=S52   Shape=Box/Tube   t3=0.09   t2=0.09   tf=0.005   tw=0.005   Area=0.0017   TorsConst=3.070625E-06   I33=2.05416666666667E-06   I22=2.05416666666667E-06   I23=0   AS2=0.0009   AS3=0.0009 _
        S33=4.56481481481481E-05   S22=4.56481481481481E-05   Z33=5.425E-05   Z22=5.425E-05   R33=0.0347610893576903   R22=0.0347610893576903   Color=Green   FromFile=No   AMod=1   A2Mod=1   A3Mod=1   JMod=1   I2Mod=1   I3Mod=1   MMod=1 _
        WMod=1   Notes="Added 8/12/2024 8:13:41 PM"
   SectionName="HSS 70X5"   Material=S52   Shape=Box/Tube   t3=0.07   t2=0.07   tf=0.005   tw=0.005   Area=0.0013   TorsConst=1.373125E-06   I33=9.20833333333334E-07   I22=9.20833333333334E-07   I23=0   AS2=0.0007   AS3=0.0007 _
        S33=2.63095238095238E-05   S22=2.63095238095238E-05   Z33=3.175E-05   Z22=3.175E-05   R33=0.0266145323711189   R22=0.0266145323711189   Color=Gray8Dark   FromFile=No   AMod=1   A2Mod=1   A3Mod=1   JMod=1   I2Mod=1   I3Mod=1   MMod=1 _
        WMod=1   Notes="Added 8/12/2024 7:32:13 PM"
   SectionName="IPE 300"   Material=S52   Shape="I/Wide Flange"   t3=0.3   t2=0.15   tf=0.0107   tw=0.0071   t2b=0.3   tfb=0.0107   Area=0.00679306   TorsConst=2.10955462990333E-07   I33=0.000105653061271099   I22=2.70926845003833E-05 _
        I23=0   AS2=0.00213   AS3=0.0040125   S33=0.000573651043611645   S22=0.000180617896669222   Z33=0.000743556523366197   Z22=0.0003044485565   R33=0.12471202103903   R22=0.0631528994537518   Color=Red   FromFile=No   AMod=1   A2Mod=1 _
        A3Mod=1   JMod=1   I2Mod=1   I3Mod=1   MMod=1   WMod=1   Notes="Added 8/12/2024 8:54:02 PM"
 
TABLE:  "FRAME SECTION PROPERTIES 13 - TIME DEPENDENT"
   SectionName="HEB 300"   TypeSize=Auto   AutoSFSize=1
   SectionName="HRS 90X5"   TypeSize=Auto   AutoSFSize=1
   SectionName="HSS 70X5"   TypeSize=Auto   AutoSFSize=1
   SectionName="IPE 300"   TypeSize=Auto   AutoSFSize=1
 
TABLE:  "FUNCTION - PLOT FUNCTIONS"
   PlotFunc="Input Energy"   Type=Energy   Component=Input   Mode=All
 
TABLE:  "FUNCTION - POWER SPECTRAL DENSITY - USER"
   Name=UNIFPSD   Frequency=0   Value=1
   Name=UNIFPSD   Frequency=1   Value=1
 
TABLE:  "FUNCTION - RESPONSE SPECTRUM - USER"
   Name=UNIFRS   Period=0   Accel=1   FuncDamp=0.05
   Name=UNIFRS   Period=1   Accel=1
 
TABLE:  "FUNCTION - STEADY STATE - USER"
   Name=UNIFSS   Frequency=0   Value=1
   Name=UNIFSS   Frequency=1   Value=1
 
TABLE:  "FUNCTION - TIME HISTORY - USER"
   Name=RAMPTH   Time=0   Value=0
   Name=RAMPTH   Time=1   Value=1
   Name=RAMPTH   Time=4   Value=1
   Name=UNIFTH   Time=0   Value=1
   Name=UNIFTH   Time=1   Value=1
 
TABLE:  "GRID LINES"
   CoordSys=GLOBAL   AxisDir=X   XRYZCoord=-12.2472942685857   LineType=Primary   LineColor=Gray8Dark   Visible=Yes   BubbleLoc=End   AllVisible=Yes   BubbleSize=2.4384
   CoordSys=GLOBAL   AxisDir=X   XRYZCoord=0   LineType=Primary   LineColor=Gray8Dark   Visible=Yes   BubbleLoc=End
   CoordSys=GLOBAL   AxisDir=X   XRYZCoord=18.1021959833326   LineType=Primary   LineColor=Gray8Dark   Visible=Yes   BubbleLoc=End
   CoordSys=GLOBAL   AxisDir=Y   XRYZCoord=-7.36405810429756   LineType=Primary   LineColor=Gray8Dark   Visible=Yes   BubbleLoc=End
   CoordSys=GLOBAL   AxisDir=Y   XRYZCoord=0   LineType=Primary   LineColor=Gray8Dark   Visible=Yes   BubbleLoc=End
   CoordSys=GLOBAL   AxisDir=Y   XRYZCoord=5.00830656080834   LineType=Primary   LineColor=Gray8Dark   Visible=Yes   BubbleLoc=End
   CoordSys=GLOBAL   AxisDir=Z   XRYZCoord=0   LineType=Primary   LineColor=Gray8Dark   Visible=Yes   BubbleLoc=End
 
TABLE:  "GROUPS 1 - DEFINITIONS"
   GroupName=ALL   Selection=Yes   SectionCut=Yes   Steel=Yes   Concrete=Yes   Aluminum=Yes   ColdFormed=Yes   Stage=Yes   Bridge=Yes   AutoSeismic=No   AutoWind=No   SelDesSteel=No   SelDesAlum=No   SelDesCold=No   MassWeight=Yes   Color=Red
   GroupName=DXFIN   Selection=Yes   SectionCut=Yes   Steel=Yes   Concrete=Yes   Aluminum=Yes   ColdFormed=Yes   Stage=Yes   Bridge=Yes   AutoSeismic=No   AutoWind=No   SelDesSteel=No   SelDesAlum=No   SelDesCold=No   MassWeight=Yes   Color=Black
   GroupName=DXFIN-1   Selection=Yes   SectionCut=Yes   Steel=Yes   Concrete=Yes   Aluminum=Yes   ColdFormed=Yes   Stage=Yes   Bridge=Yes   AutoSeismic=No   AutoWind=No   SelDesSteel=No   SelDesAlum=No   SelDesCold=No   MassWeight=Yes   Color=Black
 
TABLE:  "GROUPS 2 - ASSIGNMENTS"
   GroupName=DXFIN-1   ObjectType=Frame   ObjectLabel=114
   GroupName=DXFIN-1   ObjectType=Frame   ObjectLabel=115
   GroupName=DXFIN-1   ObjectType=Frame   ObjectLabel=116
   GroupName=DXFIN-1   ObjectType=Frame   ObjectLabel=117
   GroupName=DXFIN-1   ObjectType=Frame   ObjectLabel=118
   GroupName=DXFIN-1   ObjectType=Frame   ObjectLabel=119
   GroupName=DXFIN-1   ObjectType=Frame   ObjectLabel=120
   GroupName=DXFIN-1   ObjectType=Frame   ObjectLabel=121
   GroupName=DXFIN-1   ObjectType=Frame   ObjectLabel=122
   GroupName=DXFIN-1   ObjectType=Frame   ObjectLabel=123
   GroupName=DXFIN-1   ObjectType=Frame   ObjectLabel=124
   GroupName=DXFIN-1   ObjectType=Frame   ObjectLabel=125
   GroupName=DXFIN-1   ObjectType=Frame   ObjectLabel=126
   GroupName=DXFIN-1   ObjectType=Frame   ObjectLabel=127
   GroupName=DXFIN-1   ObjectType=Frame   ObjectLabel=128
   GroupName=DXFIN-1   ObjectType=Frame   ObjectLabel=129
   GroupName=DXFIN-1   ObjectType=Frame   ObjectLabel=130
   GroupName=DXFIN-1   ObjectType=Frame   ObjectLabel=131
   GroupName=DXFIN-1   ObjectType=Frame   ObjectLabel=132
   GroupName=DXFIN-1   ObjectType=Frame   ObjectLabel=133
# ... 24 like lines cut
 
TABLE:  "JOINT COORDINATES"
   Joint=1   CoordSys=GLOBAL   CoordType=Cartesian   XorR=1   Y=1.65284403669725   Z=0   SpecialJt=No   GUID=93ae5f37-8713-40b4-a9da-13226eae9872
   Joint=826   CoordSys=GLOBAL   CoordType=Cartesian   XorR=0   Y=0   Z=0   SpecialJt=No   GUID=99c5b64f-04f8-4d1a-b177-821ac9db9e60
   Joint=827   CoordSys=GLOBAL   CoordType=Cartesian   XorR=0   Y=5.01   Z=0   SpecialJt=No   GUID=30c0b8f4-3a72-4d8a-9987-1473a855b1a8
   Joint=828   CoordSys=GLOBAL   CoordType=Cartesian   XorR=1   Y=1.65   Z=0   SpecialJt=No   GUID=703cc4dd-7bb8-4e4e-87e1-8f181b9f7379
   Joint=829   CoordSys=GLOBAL   CoordType=Cartesian   XorR=1   Y=5.01   Z=0   SpecialJt=No   GUID=b9918c04-0b56-4393-8fbb-c4f528607d16
   Joint=830   CoordSys=GLOBAL   CoordType=Cartesian   XorR=-1   Y=0.41   Z=0   SpecialJt=No   GUID=84a5d324-3a31-489e-a656-fec2f5e1cd92
   Joint=831   CoordSys=GLOBAL   CoordType=Cartesian   XorR=-1   Y=5.01   Z=0   SpecialJt=No   GUID=d074429b-18c3-4171-89b2-4271a8fde7ab
   Joint=832   CoordSys=GLOBAL   CoordType=Cartesian   XorR=-2   Y=0.82   Z=0   SpecialJt=No   GUID=ffa6b847-2b66-4b1b-8803-696aa099a20a
   Joint=833   CoordSys=GLOBAL   CoordType=Cartesian   XorR=-2   Y=5.01   Z=0   SpecialJt=No   GUID=383673b4-ae3e-44e4-a6e5-b526df45c2d4
   Joint=834   CoordSys=GLOBAL   CoordType=Cartesian   XorR=-3   Y=1.23   Z=0   SpecialJt=No   GUID=4fd74866-0cc0-47ec-998c-bd2ab6ab2602
   Joint=835   CoordSys=GLOBAL   CoordType=Cartesian   XorR=-3   Y=5.01   Z=0   SpecialJt=No   GUID=1eea7055-a5f9-40ee-b393-41527c997b42
   Joint=836   CoordSys=GLOBAL   CoordType=Cartesian   XorR=-4   Y=1.64   Z=0   SpecialJt=No   GUID=1018f7c5-09aa-4fc9-98d8-8b4ea0ff494d
   Joint=837   CoordSys=GLOBAL   CoordType=Cartesian   XorR=-4   Y=5.01   Z=0   SpecialJt=No   GUID=9d8d3b32-b409-4fb9-8507-9fe952160d7a
   Joint=838   CoordSys=GLOBAL   CoordType=Cartesian   XorR=-5   Y=2.04   Z=0   SpecialJt=No   GUID=29f8df43-458d-401b-b896-31521561a938
   Joint=839   CoordSys=GLOBAL   CoordType=Cartesian   XorR=-5   Y=5.01   Z=0   SpecialJt=No   GUID=9505dc09-5145-45d4-bee5-4efe317d6ee0
   Joint=840   CoordSys=GLOBAL   CoordType=Cartesian   XorR=-6   Y=2.45   Z=0   SpecialJt=No   GUID=e7e95790-669b-4db6-8539-76668c1e209c
   Joint=841   CoordSys=GLOBAL   CoordType=Cartesian   XorR=-6   Y=5.01   Z=0   SpecialJt=No   GUID=8bec7fe6-b2da-4a1f-bf37-cadadea6b02e
   Joint=842   CoordSys=GLOBAL   CoordType=Cartesian   XorR=-7   Y=2.86   Z=0   SpecialJt=No   GUID=ed1c2108-d2ec-4f48-bd91-ec329f35efd0
   Joint=843   CoordSys=GLOBAL   CoordType=Cartesian   XorR=-7   Y=5.01   Z=0   SpecialJt=No   GUID=1b1597b6-3c96-489e-9fce-bc28d10c51c2
   Joint=844   CoordSys=GLOBAL   CoordType=Cartesian   XorR=-8   Y=3.27   Z=0   SpecialJt=No   GUID=38bd4df8-43ae-4800-bcfd-1897e9050472
   Joint=845   CoordSys=GLOBAL   CoordType=Cartesian   XorR=-8   Y=5.01   Z=0   SpecialJt=No   GUID=77166e9a-10d6-4765-a7ae-849a5f1dc51a
   Joint=846   CoordSys=GLOBAL   CoordType=Cartesian   XorR=-9   Y=3.68   Z=0   SpecialJt=No   GUID=0b027503-3055-4f42-93b6-c5887f9e1a6c
   Joint=847   CoordSys=GLOBAL   CoordType=Cartesian   XorR=-9   Y=5.01   Z=0   SpecialJt=No   GUID=21a83625-08c5-4b8f-b083-a1946470b812
   Joint=848   CoordSys=GLOBAL   CoordType=Cartesian   XorR=-10   Y=4.09   Z=0   SpecialJt=No   GUID=06664fef-d519-4355-b704-748c96168d11
   Joint=849   CoordSys=GLOBAL   CoordType=Cartesian   XorR=-10   Y=5.01   Z=0   SpecialJt=No   GUID=233603d3-a47f-40cb-85f8-711a129b0fc0
   Joint=850   CoordSys=GLOBAL   CoordType=Cartesian   XorR=-11   Y=4.5   Z=0   SpecialJt=No   GUID=291f0ffc-7d7d-471e-8bb5-c9db8b78fe40
   Joint=851   CoordSys=GLOBAL   CoordType=Cartesian   XorR=-11   Y=5.01   Z=0   SpecialJt=No   GUID=7ced1966-640e-48bb-935b-2bdf7180c6b4
   Joint=852   CoordSys=GLOBAL   CoordType=Cartesian   XorR=1.65   Y=6.64   Z=0   SpecialJt=No   GUID=82e78ef6-8b93-4084-8f1b-5312c7ec3308
   Joint=853   CoordSys=GLOBAL   CoordType=Cartesian   XorR=10.3   Y=6.64   Z=0   SpecialJt=No   GUID=f0779bd5-038d-45b4-95c6-a188ff177f59
   Joint=854   CoordSys=GLOBAL   CoordType=Cartesian   XorR=1.65   Y=5.01   Z=0   SpecialJt=No   GUID=39c31523-94a6-4849-bd9a-27e6b2e414a2
   Joint=855   CoordSys=GLOBAL   CoordType=Cartesian   XorR=10.3   Y=5.01   Z=0   SpecialJt=No   GUID=b51d24e2-0c40-44db-9fdb-7fef90b8f873
   Joint=856   CoordSys=GLOBAL   CoordType=Cartesian   XorR=3   Y=5.01   Z=0   SpecialJt=No   GUID=f0493a98-952a-4ca8-8e9b-f1854b15210c
   Joint=857   CoordSys=GLOBAL   CoordType=Cartesian   XorR=3   Y=6.64   Z=0   SpecialJt=No   GUID=920bf7ac-8929-4ceb-bd9b-8e14d4741db7
   Joint=858   CoordSys=GLOBAL   CoordType=Cartesian   XorR=4.69   Y=5.01   Z=0   SpecialJt=No   GUID=77ced1c6-b5ea-425f-9262-0e94a9cb73b4
   Joint=859   CoordSys=GLOBAL   CoordType=Cartesian   XorR=4.69   Y=6.64   Z=0   SpecialJt=No   GUID=1b14117e-05dc-47b5-b725-ed471b49de02
   Joint=860   CoordSys=GLOBAL   CoordType=Cartesian   XorR=6.19   Y=5.01   Z=0   SpecialJt=No   GUID=5a725ea0-c15b-429e-9755-e42758f9a8f0
   Joint=861   CoordSys=GLOBAL   CoordType=Cartesian   XorR=6.19   Y=6.64   Z=0   SpecialJt=No   GUID=71633205-53da-42e9-a1a2-efab9e50714a
   Joint=862   CoordSys=GLOBAL   CoordType=Cartesian   XorR=7.69   Y=5.01   Z=0   SpecialJt=No   GUID=23346c1a-6939-4123-99a1-db01eebd0d4b
   Joint=863   CoordSys=GLOBAL   CoordType=Cartesian   XorR=7.69   Y=6.64   Z=0   SpecialJt=No   GUID=a18a6f84-706e-45f9-9824-5edafa71da33
   Joint=864   CoordSys=GLOBAL   CoordType=Cartesian   XorR=9.19   Y=5.01   Z=0   SpecialJt=No   GUID=2d563f69-09ad-46ad-842b-d4bc5556aad9
   Joint=865   CoordSys=GLOBAL   CoordType=Cartesian   XorR=9.19   Y=6.64   Z=0   SpecialJt=No   GUID=36ed1dd2-b1b2-42a4-a7e5-76609555da36
   Joint=866   CoordSys=GLOBAL   CoordType=Cartesian   XorR=0   Y=2.06   Z=0   SpecialJt=No   GUID=58203a92-09c3-4342-a753-747f4a2e010b
   Joint=867   CoordSys=GLOBAL   CoordType=Cartesian   XorR=16.93   Y=-4.86   Z=0   SpecialJt=No   GUID=ee5dbf7e-8c4f-4248-8ccb-5b31cd68963b
   Joint=868   CoordSys=GLOBAL   CoordType=Cartesian   XorR=18.1   Y=-7.36   Z=0   SpecialJt=No   GUID=85135e06-4bcc-4847-be34-358ca54151ae
   Joint=869   CoordSys=GLOBAL   CoordType=Cartesian   XorR=1.57   Y=-0.64   Z=0   SpecialJt=No   GUID=14859efa-b81c-4118-b846-415682610687
   Joint=870   CoordSys=GLOBAL   CoordType=Cartesian   XorR=2.3   Y=1.12   Z=0   SpecialJt=No   GUID=243eb10a-d9c5-43cd-b8c4-d48a0632517d
   Joint=871   CoordSys=GLOBAL   CoordType=Cartesian   XorR=0.19   Y=-0.08   Z=0   SpecialJt=No   GUID=a8a3430e-4aae-4944-8a02-fec8cff93d2d
   Joint=872   CoordSys=GLOBAL   CoordType=Cartesian   XorR=0.91   Y=1.69   Z=0   SpecialJt=No   GUID=820c5f77-2630-4d6f-8e8b-f52695cc0f0e
   Joint=873   CoordSys=GLOBAL   CoordType=Cartesian   XorR=2.96   Y=-1.21   Z=0   SpecialJt=No   GUID=7dd91708-d329-475d-93d8-ddf498a3c981
   Joint=874   CoordSys=GLOBAL   CoordType=Cartesian   XorR=3.68   Y=0.56   Z=0   SpecialJt=No   GUID=56a66316-2cf6-466d-b533-f9ddafd69ee4
   Joint=875   CoordSys=GLOBAL   CoordType=Cartesian   XorR=4.35   Y=-1.77   Z=0   SpecialJt=No   GUID=6c3d7582-d7cd-4c7a-98d4-6acfbfd09254
   Joint=876   CoordSys=GLOBAL   CoordType=Cartesian   XorR=5.07   Y=-0.01   Z=0   SpecialJt=No   GUID=2ed086b4-2595-409f-87c9-1c5bbcb711af
   Joint=877   CoordSys=GLOBAL   CoordType=Cartesian   XorR=5.74   Y=-2.34   Z=0   SpecialJt=No   GUID=47eddddb-65f4-49fe-967c-9025dae210d4
   Joint=878   CoordSys=GLOBAL   CoordType=Cartesian   XorR=6.46   Y=-0.58   Z=0   SpecialJt=No   GUID=5b1dd19b-8c3a-4952-95c6-561242f55570
   Joint=879   CoordSys=GLOBAL   CoordType=Cartesian   XorR=7.13   Y=-2.9   Z=0   SpecialJt=No   GUID=c664334a-865d-44ef-9a50-90e33f7bd1db
   Joint=880   CoordSys=GLOBAL   CoordType=Cartesian   XorR=7.85   Y=-1.15   Z=0   SpecialJt=No   GUID=17113602-cdff-43cd-a776-59244bb4710e
   Joint=881   CoordSys=GLOBAL   CoordType=Cartesian   XorR=8.52   Y=-3.47   Z=0   SpecialJt=No   GUID=c0c4738f-210c-4d05-873f-659b134b1ad9
   Joint=882   CoordSys=GLOBAL   CoordType=Cartesian   XorR=9.24   Y=-1.71   Z=0   SpecialJt=No   GUID=31c718dc-074c-4297-9426-54885af2f248
   Joint=883   CoordSys=GLOBAL   CoordType=Cartesian   XorR=9.91   Y=-4.03   Z=0   SpecialJt=No   GUID=607699f1-95a7-457e-ab42-dc110491dce7
   Joint=884   CoordSys=GLOBAL   CoordType=Cartesian   XorR=10.63   Y=-2.28   Z=0   SpecialJt=No   GUID=2ce44008-74fa-469e-adde-2b737d23c072
   Joint=885   CoordSys=GLOBAL   CoordType=Cartesian   XorR=11.3   Y=-4.6   Z=0   SpecialJt=No   GUID=aa204d42-900a-4604-8ff0-d9cb884a39f7
   Joint=886   CoordSys=GLOBAL   CoordType=Cartesian   XorR=12.02   Y=-2.85   Z=0   SpecialJt=No   GUID=eeada604-8809-425b-9eff-295cc4bb5dd2
   Joint=887   CoordSys=GLOBAL   CoordType=Cartesian   XorR=12.69   Y=-5.16   Z=0   SpecialJt=No   GUID=a5ed7bb1-8082-457d-9026-1f1504498489
   Joint=888   CoordSys=GLOBAL   CoordType=Cartesian   XorR=13.4   Y=-3.42   Z=0   SpecialJt=No   GUID=acf6bb85-f95e-43ab-9ea8-fee32e83f7f8
   Joint=889   CoordSys=GLOBAL   CoordType=Cartesian   XorR=14.08   Y=-5.73   Z=0   SpecialJt=No   GUID=ed87994e-5267-4395-9769-5a2c47bd6b62
   Joint=890   CoordSys=GLOBAL   CoordType=Cartesian   XorR=14.79   Y=-3.98   Z=0   SpecialJt=No   GUID=cc540a6c-4a73-48dc-b301-aeb74b3e93b4
   Joint=891   CoordSys=GLOBAL   CoordType=Cartesian   XorR=15.47   Y=-6.29   Z=0   SpecialJt=No   GUID=f888d28d-4307-45fd-86cd-476068def1cc
   Joint=892   CoordSys=GLOBAL   CoordType=Cartesian   XorR=16.18   Y=-4.55   Z=0   SpecialJt=No   GUID=854e9115-2239-4106-a712-9c50f98da60e
   Joint=893   CoordSys=GLOBAL   CoordType=Cartesian   XorR=3   Y=0.84   Z=0   SpecialJt=No   GUID=f91cda8a-ed8d-407c-aa8a-465721388bdc
   Joint=894   CoordSys=GLOBAL   CoordType=Cartesian   XorR=2   Y=5.01   Z=0   SpecialJt=No   GUID=81804711-d227-4762-90ae-3f888050c8d0
   Joint=895   CoordSys=GLOBAL   CoordType=Cartesian   XorR=2   Y=1.24   Z=0   SpecialJt=No   GUID=b0613175-b226-4250-914a-fb0e550ca2b9
   Joint=942   CoordSys=GLOBAL   CoordType=Cartesian   XorR=0.63   Y=1   Z=0   SpecialJt=No   GUID=0c872216-410c-4cca-9398-ddab4e720d4c
   Joint=943   CoordSys=GLOBAL   CoordType=Cartesian   XorR=0   Y=1   Z=0   SpecialJt=No   GUID=fc41d7e7-9f42-4940-8497-cc6e8416aeec
   Joint=1629   CoordSys=GLOBAL   CoordType=Cartesian   XorR=1.56705064163293   Y=-0.637209542675049   Z=0   SpecialJt=No   GUID=35ddf59f-a2f9-47d0-b363-d4a697f3125d
   Joint=1631   CoordSys=GLOBAL   CoordType=Cartesian   XorR=2.2878904632654   Y=1.12484335464876   Z=0   SpecialJt=No   GUID=7e7eb3ec-1927-4454-94ee-f9081d6e26ce
 
TABLE:  "JOINT PATTERN DEFINITIONS"
   Pattern=Default
 
TABLE:  "JOINT RESTRAINT ASSIGNMENTS"
   Joint=827   U1=Yes   U2=Yes   U3=Yes   R1=Yes   R2=Yes   R3=Yes
   Joint=829   U1=Yes   U2=Yes   U3=Yes   R1=Yes   R2=Yes   R3=Yes
   Joint=831   U1=Yes   U2=Yes   U3=Yes   R1=Yes   R2=Yes   R3=Yes
   Joint=833   U1=Yes   U2=Yes   U3=Yes   R1=Yes   R2=Yes   R3=Yes
   Joint=835   U1=Yes   U2=Yes   U3=Yes   R1=Yes   R2=Yes   R3=Yes
   Joint=837   U1=Yes   U2=Yes   U3=Yes   R1=Yes   R2=Yes   R3=Yes
   Joint=839   U1=Yes   U2=Yes   U3=Yes   R1=Yes   R2=Yes   R3=Yes
   Joint=841   U1=Yes   U2=Yes   U3=Yes   R1=Yes   R2=Yes   R3=Yes
   Joint=843   U1=Yes   U2=Yes   U3=Yes   R1=Yes   R2=Yes   R3=Yes
   Joint=845   U1=Yes   U2=Yes   U3=Yes   R1=Yes   R2=Yes   R3=Yes
   Joint=847   U1=Yes   U2=Yes   U3=Yes   R1=Yes   R2=Yes   R3=Yes
   Joint=849   U1=Yes   U2=Yes   U3=Yes   R1=Yes   R2=Yes   R3=Yes
   Joint=851   U1=Yes   U2=Yes   U3=Yes   R1=Yes   R2=Yes   R3=Yes
   Joint=852   U1=Yes   U2=Yes   U3=Yes   R1=Yes   R2=Yes   R3=Yes
   Joint=853   U1=Yes   U2=Yes   U3=Yes   R1=Yes   R2=Yes   R3=Yes
   Joint=854   U1=Yes   U2=Yes   U3=Yes   R1=Yes   R2=Yes   R3=Yes
   Joint=855   U1=Yes   U2=Yes   U3=Yes   R1=Yes   R2=Yes   R3=Yes
   Joint=867   U1=Yes   U2=Yes   U3=Yes   R1=Yes   R2=Yes   R3=Yes
   Joint=868   U1=Yes   U2=Yes   U3=Yes   R1=Yes   R2=Yes   R3=Yes
 
TABLE:  "LINK PROPERTY DEFINITIONS 01 - GENERAL"
   Link=LINK1   LinkType=Linear   Mass=0   Weight=0   RotInert1=0   RotInert2=0   RotInert3=0   DefLength=1   DefArea=1   PDM2I=0   PDM2J=0   PDM3I=0   PDM3J=0   StiffDFact=1   Color=Green   Notes="Added 8/12/2024 7:08:45 PM"
 
TABLE:  "LINK PROPERTY DEFINITIONS 02 - LINEAR"
   Link=LINK1   DOF=U1   Fixed=No   TransKE=1   TransCE=0
 
TABLE:  "LOAD CASE DEFINITIONS"
   Case=DEAD   Type=LinStatic   InitialCond=Zero   DesTypeOpt="Prog Det"   DesignType=Dead   DesActOpt="Prog Det"   DesignAct=Non-Composite   AutoType=None   RunCase=Yes   GUID=972dd3f1-41fb-48e7-b0ce-dad13147d022
   Case=MODAL   Type=LinModal   InitialCond=Zero   DesTypeOpt="Prog Det"   DesignType=Other   DesActOpt="Prog Det"   DesignAct=Other   AutoType=None   RunCase=Yes   GUID=291ba9c4-d447-49d4-a800-860fe326d2f8
   Case=LIVE   Type=LinStatic   InitialCond=Zero   DesTypeOpt="Prog Det"   DesignType=Live   DesActOpt="Prog Det"   DesignAct="Short-Term Composite"   AutoType=None   RunCase=Yes   GUID=db927560-e933-4d33-995b-009025c44c57
   Case=FC   Type=LinStatic   InitialCond=Zero   DesTypeOpt="Prog Det"   DesignType=Other   DesActOpt="Prog Det"   DesignAct=Other   AutoType=None   RunCase=Yes   GUID=bd473975-de39-4843-87e3-d69babf49eac
   Case=CL   Type=LinStatic   InitialCond=Zero   DesTypeOpt="Prog Det"   DesignType=Other   DesActOpt="Prog Det"   DesignAct=Other   AutoType=None   RunCase=Yes   GUID=9da74f9f-5b99-4c78-afe3-d469c9105c74
   Case="WIND LOAD"   Type=LinStatic   InitialCond=Zero   DesTypeOpt="Prog Det"   DesignType=Wind   DesActOpt="Prog Det"   DesignAct="Short-Term Composite"   AutoType=None   RunCase=Yes   GUID=737536f6-b196-401d-8042-01799fdcccdc
   Case=TEMP+   Type=LinStatic   InitialCond=Zero   DesTypeOpt="Prog Det"   DesignType=Temperature   DesActOpt="Prog Det"   DesignAct="Short-Term Composite"   AutoType=None   RunCase=Yes   GUID=4a68b76b-fee0-40c1-af35-d63da6f07921
   Case=TEMP-   Type=LinStatic   InitialCond=Zero   DesTypeOpt="Prog Det"   DesignType=Temperature   DesActOpt="Prog Det"   DesignAct="Short-Term Composite"   AutoType=None   RunCase=Yes   GUID=75aee28f-75f9-4316-9bd1-eb52b99df2af
 
TABLE:  "LOAD PATTERN DEFINITIONS"
   LoadPat=DEAD   DesignType=Dead   SelfWtMult=1   GUID=480c8a77-3840-4e6c-a30f-b4f82f64ddc5
   LoadPat=LIVE   DesignType=Live   SelfWtMult=0   GUID=87f4857b-3fc1-42df-8fa7-503368abc527   Notes="Added 8/12/2024 7:40:00 PM"
   LoadPat=FC   DesignType=Other   SelfWtMult=0   GUID=9cac866d-00f0-4f91-80ee-fd06f3734f01   Notes="Added 8/12/2024 7:40:15 PM"
   LoadPat=CL   DesignType=Other   SelfWtMult=0   GUID=4e94c0a7-862f-4279-ae40-13de121ed4d0   Notes="Added 8/12/2024 7:40:19 PM"
   LoadPat="WIND LOAD"   DesignType=Wind   SelfWtMult=0   AutoLoad=USER   GUID=46696044-3440-44e3-aa42-86bde51a0953   Notes="Added 8/12/2024 8:17:39 PM"
   LoadPat=TEMP+   DesignType=Temperature   SelfWtMult=0   GUID=23c4c315-c189-4005-99ae-148566432982   Notes="Added 8/12/2024 8:29:22 PM"
   LoadPat=TEMP-   DesignType=Temperature   SelfWtMult=0   GUID=1fb9f802-c98d-47bc-b8be-32034af1b9cc   Notes="Added 8/12/2024 8:29:27 PM"
 
TABLE:  "MASS SOURCE"
   MassSource=MSSSRC1   Elements=Yes   Masses=Yes   Loads=No   IsDefault=Yes
 
TABLE:  "MATERIAL PROPERTIES 01 - GENERAL"
   Material=4000Psi   Type=Concrete   Grade="f'c 4000 psi"   SymType=Isotropic   TempDepend=No   Color=Magenta   Notes="Customary f'c 4000 psi 8/12/2024 7:07:38 PM"
   Material=A416Gr270   Type=Tendon   Grade="Grade 270"   SymType=Uniaxial   TempDepend=No   Color=Cyan   Notes="ASTM A416 Grade 270 8/13/2024 2:02:32 PM"
   Material=A992Fy50   Type=Steel   Grade="Grade 50"   SymType=Isotropic   TempDepend=No   Color=Red   Notes="ASTM A992 Grade 50 8/12/2024 7:07:38 PM"
   Material=S52   Type=Steel   Grade="Grade 50"   SymType=Isotropic   TempDepend=No   Color=Red   Notes="United States ASTM A572 Grade 50 added 8/12/2024 7:28:07 PM"
 
TABLE:  "MATERIAL PROPERTIES 02 - BASIC MECHANICAL PROPERTIES"
   Material=4000Psi   UnitWeight=2.40276966513304   UnitMass=0.245014307299924   E1=2534563.54148831   G12=1056068.1422868   U12=0.2   A1=9.89999952793124E-06
   Material=A416Gr270   UnitWeight=7.84904757236607   UnitMass=0.80038007068661   E1=20037484.3449687   A1=1.16999994421006E-05
   Material=A992Fy50   UnitWeight=7.84904757236607   UnitMass=0.80038007068661   E1=20389019.1580383   G12=7841930.44539935   U12=0.3   A1=1.16999994421006E-05
   Material=S52   UnitWeight=7.84904757236607   UnitMass=0.80038007068661   E1=20389019.1580383   G12=7841930.44539935   U12=0.3   A1=1.16999994421006E-05
 
TABLE:  "MATERIAL PROPERTIES 03A - STEEL DATA"
   Material=A992Fy50   Fy=35153.4813069626   Fu=45699.5256990514   EffFy=38668.8294376589   EffFu=50269.4782689565   SSCurveOpt=Simple   SSHysType=Kinematic   SHard=0.015   SMax=0.11   SRup=0.17   FinalSlope=-0.1
   Material=S52   Fy=35153.4813069626   Fu=45699.5256990514   EffFy=38668.8294376589   EffFu=50269.4782689565   SSCurveOpt=Simple   SSHysType=Kinematic   SHard=0.015   SMax=0.11   SRup=0.17   FinalSlope=-0.1
 
TABLE:  "MATERIAL PROPERTIES 03B - CONCRETE DATA"
   Material=4000Psi   Fc=2812.27850455701   eFc=2812.27850455701   LtWtConc=No   SSCurveOpt=Mander   SSHysType=Takeda   SFc=0.00221914   SCap=0.005   FinalSlope=-0.1   FAngle=0   DAngle=0
 
TABLE:  "MATERIAL PROPERTIES 03F - TENDON DATA"
   Material=A416Gr270   Fy=172322.365366731   Fu=189828.799057598   SSCurveOpt="270 ksi"   SSHysType=Kinematic   FinalSlope=-0.1
 
TABLE:  "MATERIAL PROPERTIES 06 - DAMPING PARAMETERS"
   Material=4000Psi   ModalRatio=0   VisMass=0   VisStiff=0   HysMass=0   HysStiff=0
   Material=A416Gr270   ModalRatio=0   VisMass=0   VisStiff=0   HysMass=0   HysStiff=0
   Material=A992Fy50   ModalRatio=0   VisMass=0   VisStiff=0   HysMass=0   HysStiff=0
   Material=S52   ModalRatio=0   VisMass=0   VisStiff=0   HysMass=0   HysStiff=0
 
TABLE:  "OPTIONS - COLORS - DISPLAY"
   DeviceType=Screen   Points=Blue   LinesFrame=DarkYellow   LinesFrmDL=Blue   LinesCable=Green   LinesTendon=Green   SpringLinks=Green   Restraints=Green   Releases=Green   Axes=Cyan   Text=Black   ShadowLines=Gray8Dark _
        GuideLines=Gray8Dark   Highlight=Red   Selection=10504778   AreaFillBot=Red   AreaFillTop=16744703   AreaFillSd=Red   AreaEdge=DarkRed   SolidF1=Red   SolidF2=Blue   SolidF3=Green   SolidF4=Yellow   SolidF5=White   SolidF6=Cyan _
        SolidEdge=DarkRed   Floor=Gray4   Background=White   BGLowLeft=White   BGLowRight=White   BGUpRight=White   Darkness=0
   DeviceType=Printer   Points=Gray8Dark   LinesFrame=Black   LinesFrmDL=Gray4   LinesCable=Black   LinesTendon=Black   SpringLinks=Gray8Dark   Restraints=Gray8Dark   Releases=Gray4   Axes=Black   Text=Black   ShadowLines=Gray4 _
        GuideLines=Gray4   Highlight=Black   Selection=Black   AreaFillBot=Gray4   AreaFillTop=Gray8Dark   AreaFillSd=Gray4   AreaEdge=Black   SolidF1=Gray1Light   SolidF2=Gray2   SolidF3=Gray3   SolidF4=Gray4   SolidF5=Gray5 _
        SolidF6=Gray6   SolidEdge=Black   Floor=Gray4   Background=White   BGLowLeft=White   BGLowRight=White   BGUpRight=White   Darkness=0.5
   DeviceType="Color Printer"   Points=Blue   LinesFrame=Blue   LinesFrmDL=Blue   LinesCable=Green   LinesTendon=Green   SpringLinks=Green   Restraints=Green   Releases=Green   Axes=Cyan   Text=Black   ShadowLines=Gray8Dark _
        GuideLines=Gray8Dark   Highlight=Red   Selection=10504778   AreaFillBot=Red   AreaFillTop=16744703   AreaFillSd=Red   AreaEdge=DarkRed   SolidF1=Red   SolidF2=Blue   SolidF3=Green   SolidF4=Yellow   SolidF5=White   SolidF6=Cyan _
        SolidEdge=DarkRed   Floor=Gray4   Background=White   BGLowLeft=White   BGLowRight=White   BGUpRight=White   Darkness=0.5
 
TABLE:  "OPTIONS - COLORS - OUTPUT"
   DeviceType=Screen   Contour1=13107400   Contour2=6553828   Contour3=Red   Contour4=16639   Contour5=Orange   Contour6=43775   Contour7=54527   Contour8=Yellow   Contour9=65408   Contour10=Green   Contour11=8453888   Contour12=Cyan _
        Contour13=16755200   Contour14=16733440   Contour15=Blue   Transpare=0.5   Ratio1=Cyan   Ratio2=Green   Ratio3=Yellow   Ratio4=Orange   Ratio5=Red   RatioNotD=Gray4   RatioNotC=Red   RatioVal1=0.5   RatioVal2=0.7   RatioVal3=0.9 _
        RatioVal4=1   DFillPos=Blue   DFillNeg=Red   DFillRPos=Green   DFillRNeg=Green
   DeviceType=Printer   Contour1=Black   Contour2=3158064   Contour3=4210752   Contour4=5263440   Contour5=6316128   Contour6=7368816   Contour7=Gray8Dark   Contour8=Gray7   Contour9=Gray6   Contour10=Gray5   Contour11=Gray4 _
        Contour12=Gray3   Contour13=Gray2   Contour14=Gray1Light   Contour15=White   Transpare=0   Ratio1=Gray2   Ratio2=Gray4   Ratio3=Gray8Dark   Ratio4=4210752   Ratio5=Black   RatioNotD=Gray4   RatioNotC=Black   RatioVal1=0.5 _
        RatioVal2=0.7   RatioVal3=0.9   RatioVal4=1   DFillPos=Gray8Dark   DFillNeg=Gray8Dark   DFillRPos=4210752   DFillRNeg=4210752
   DeviceType="Color Printer"   Contour1=13107400   Contour2=6553828   Contour3=Red   Contour4=16639   Contour5=Orange   Contour6=43775   Contour7=54527   Contour8=Yellow   Contour9=65408   Contour10=Green   Contour11=8453888 _
        Contour12=Cyan   Contour13=16755200   Contour14=16733440   Contour15=Blue   Transpare=0   Ratio1=Cyan   Ratio2=Green   Ratio3=Yellow   Ratio4=Orange   Ratio5=Red   RatioNotD=Gray4   RatioNotC=Red   RatioVal1=0.5   RatioVal2=0.7 _
        RatioVal3=0.9   RatioVal4=1   DFillPos=Blue   DFillNeg=Red   DFillRPos=Green   DFillRNeg=Green
 
TABLE:  "OVERWRITES - STEEL DESIGN - AISC-ASD89"
   Frame=114   DesignSect="Program Determined"   FrameType="Program Determined"   Fy=0   RLLF=0   AreaRatio=0   XLMajor=0   XLMinor=0   XKMajor=0   XKMinor=0   CmMajor=0   CmMinor=0   Cb=0   Fa=0   Ft=0   Fb3=0   Fb2=0   Fv2=0   Fv3=0 _
        CheckDefl="Program Determined"   DeflType="Program Determined"   DLRat=0   SDLAndLLRat=0   LLRat=0   TotalRat=0   NetRat=0   DLAbs=0   SDLAndLLAbs=0   LLAbs=0   TotalAbs=0   NetAbs=0   SpecCamber=0
   Frame=115   DesignSect="Program Determined"   FrameType="Program Determined"   Fy=0   RLLF=0   AreaRatio=0   XLMajor=0   XLMinor=0   XKMajor=0   XKMinor=0   CmMajor=0   CmMinor=0   Cb=0   Fa=0   Ft=0   Fb3=0   Fb2=0   Fv2=0   Fv3=0 _
        CheckDefl="Program Determined"   DeflType="Program Determined"   DLRat=0   SDLAndLLRat=0   LLRat=0   TotalRat=0   NetRat=0   DLAbs=0   SDLAndLLAbs=0   LLAbs=0   TotalAbs=0   NetAbs=0   SpecCamber=0
   Frame=116   DesignSect="Program Determined"   FrameType="Program Determined"   Fy=0   RLLF=0   AreaRatio=0   XLMajor=0   XLMinor=0   XKMajor=0   XKMinor=0   CmMajor=0   CmMinor=0   Cb=0   Fa=0   Ft=0   Fb3=0   Fb2=0   Fv2=0   Fv3=0 _
        CheckDefl="Program Determined"   DeflType="Program Determined"   DLRat=0   SDLAndLLRat=0   LLRat=0   TotalRat=0   NetRat=0   DLAbs=0   SDLAndLLAbs=0   LLAbs=0   TotalAbs=0   NetAbs=0   SpecCamber=0
   Frame=117   DesignSect="Program Determined"   FrameType="Program Determined"   Fy=0   RLLF=0   AreaRatio=0   XLMajor=0   XLMinor=0   XKMajor=0   XKMinor=0   CmMajor=0   CmMinor=0   Cb=0   Fa=0   Ft=0   Fb3=0   Fb2=0   Fv2=0   Fv3=0 _
        CheckDefl="Program Determined"   DeflType="Program Determined"   DLRat=0   SDLAndLLRat=0   LLRat=0   TotalRat=0   NetRat=0   DLAbs=0   SDLAndLLAbs=0   LLAbs=0   TotalAbs=0   NetAbs=0   SpecCamber=0
   Frame=118   DesignSect="Program Determined"   FrameType="Program Determined"   Fy=0   RLLF=0   AreaRatio=0   XLMajor=0   XLMinor=0   XKMajor=0   XKMinor=0   CmMajor=0   CmMinor=0   Cb=0   Fa=0   Ft=0   Fb3=0   Fb2=0   Fv2=0   Fv3=0 _
        CheckDefl="Program Determined"   DeflType="Program Determined"   DLRat=0   SDLAndLLRat=0   LLRat=0   TotalRat=0   NetRat=0   DLAbs=0   SDLAndLLAbs=0   LLAbs=0   TotalAbs=0   NetAbs=0   SpecCamber=0
   Frame=119   DesignSect="Program Determined"   FrameType="Program Determined"   Fy=0   RLLF=0   AreaRatio=0   XLMajor=0   XLMinor=0   XKMajor=0   XKMinor=0   CmMajor=0   CmMinor=0   Cb=0   Fa=0   Ft=0   Fb3=0   Fb2=0   Fv2=0   Fv3=0 _
        CheckDefl="Program Determined"   DeflType="Program Determined"   DLRat=0   SDLAndLLRat=0   LLRat=0   TotalRat=0   NetRat=0   DLAbs=0   SDLAndLLAbs=0   LLAbs=0   TotalAbs=0   NetAbs=0   SpecCamber=0
   Frame=120   DesignSect="Program Determined"   FrameType="Program Determined"   Fy=0   RLLF=0   AreaRatio=0   XLMajor=0   XLMinor=0   XKMajor=0   XKMinor=0   CmMajor=0   CmMinor=0   Cb=0   Fa=0   Ft=0   Fb3=0   Fb2=0   Fv2=0   Fv3=0 _
        CheckDefl="Program Determined"   DeflType="Program Determined"   DLRat=0   SDLAndLLRat=0   LLRat=0   TotalRat=0   NetRat=0   DLAbs=0   SDLAndLLAbs=0   LLAbs=0   TotalAbs=0   NetAbs=0   SpecCamber=0
   Frame=121   DesignSect="Program Determined"   FrameType="Program Determined"   Fy=0   RLLF=0   AreaRatio=0   XLMajor=0   XLMinor=0   XKMajor=0   XKMinor=0   CmMajor=0   CmMinor=0   Cb=0   Fa=0   Ft=0   Fb3=0   Fb2=0   Fv2=0   Fv3=0 _
        CheckDefl="Program Determined"   DeflType="Program Determined"   DLRat=0   SDLAndLLRat=0   LLRat=0   TotalRat=0   NetRat=0   DLAbs=0   SDLAndLLAbs=0   LLAbs=0   TotalAbs=0   NetAbs=0   SpecCamber=0
   Frame=122   DesignSect="Program Determined"   FrameType="Program Determined"   Fy=0   RLLF=0   AreaRatio=0   XLMajor=0   XLMinor=0   XKMajor=0   XKMinor=0   CmMajor=0   CmMinor=0   Cb=0   Fa=0   Ft=0   Fb3=0   Fb2=0   Fv2=0   Fv3=0 _
        CheckDefl="Program Determined"   DeflType="Program Determined"   DLRat=0   SDLAndLLRat=0   LLRat=0   TotalRat=0   NetRat=0   DLAbs=0   SDLAndLLAbs=0   LLAbs=0   TotalAbs=0   NetAbs=0   SpecCamber=0
   Frame=123   DesignSect="Program Determined"   FrameType="Program Determined"   Fy=0   RLLF=0   AreaRatio=0   XLMajor=0   XLMinor=0   XKMajor=0   XKMinor=0   CmMajor=0   CmMinor=0   Cb=0   Fa=0   Ft=0   Fb3=0   Fb2=0   Fv2=0   Fv3=0 _
        CheckDefl="Program Determined"   DeflType="Program Determined"   DLRat=0   SDLAndLLRat=0   LLRat=0   TotalRat=0   NetRat=0   DLAbs=0   SDLAndLLAbs=0   LLAbs=0   TotalAbs=0   NetAbs=0   SpecCamber=0
   Frame=124   DesignSect="Program Determined"   FrameType="Program Determined"   Fy=0   RLLF=0   AreaRatio=0   XLMajor=0   XLMinor=0   XKMajor=0   XKMinor=0   CmMajor=0   CmMinor=0   Cb=0   Fa=0   Ft=0   Fb3=0   Fb2=0   Fv2=0   Fv3=0 _
        CheckDefl="Program Determined"   DeflType="Program Determined"   DLRat=0   SDLAndLLRat=0   LLRat=0   TotalRat=0   NetRat=0   DLAbs=0   SDLAndLLAbs=0   LLAbs=0   TotalAbs=0   NetAbs=0   SpecCamber=0
   Frame=125   DesignSect="Program Determined"   FrameType="Program Determined"   Fy=0   RLLF=0   AreaRatio=0   XLMajor=0   XLMinor=0   XKMajor=0   XKMinor=0   CmMajor=0   CmMinor=0   Cb=0   Fa=0   Ft=0   Fb3=0   Fb2=0   Fv2=0   Fv3=0 _
        CheckDefl="Program Determined"   DeflType="Program Determined"   DLRat=0   SDLAndLLRat=0   LLRat=0   TotalRat=0   NetRat=0   DLAbs=0   SDLAndLLAbs=0   LLAbs=0   TotalAbs=0   NetAbs=0   SpecCamber=0
   Frame=126   DesignSect="Program Determined"   FrameType="Program Determined"   Fy=0   RLLF=0   AreaRatio=0   XLMajor=0   XLMinor=0   XKMajor=0   XKMinor=0   CmMajor=0   CmMinor=0   Cb=0   Fa=0   Ft=0   Fb3=0   Fb2=0   Fv2=0   Fv3=0 _
        CheckDefl="Program Determined"   DeflType="Program Determined"   DLRat=0   SDLAndLLRat=0   LLRat=0   TotalRat=0   NetRat=0   DLAbs=0   SDLAndLLAbs=0   LLAbs=0   TotalAbs=0   NetAbs=0   SpecCamber=0
   Frame=127   DesignSect="Program Determined"   FrameType="Program Determined"   Fy=0   RLLF=0   AreaRatio=0   XLMajor=0   XLMinor=0   XKMajor=0   XKMinor=0   CmMajor=0   CmMinor=0   Cb=0   Fa=0   Ft=0   Fb3=0   Fb2=0   Fv2=0   Fv3=0 _
        CheckDefl="Program Determined"   DeflType="Program Determined"   DLRat=0   SDLAndLLRat=0   LLRat=0   TotalRat=0   NetRat=0   DLAbs=0   SDLAndLLAbs=0   LLAbs=0   TotalAbs=0   NetAbs=0   SpecCamber=0
   Frame=128   DesignSect="Program Determined"   FrameType="Program Determined"   Fy=0   RLLF=0   AreaRatio=0   XLMajor=0   XLMinor=0   XKMajor=0   XKMinor=0   CmMajor=0   CmMinor=0   Cb=0   Fa=0   Ft=0   Fb3=0   Fb2=0   Fv2=0   Fv3=0 _
        CheckDefl="Program Determined"   DeflType="Program Determined"   DLRat=0   SDLAndLLRat=0   LLRat=0   TotalRat=0   NetRat=0   DLAbs=0   SDLAndLLAbs=0   LLAbs=0   TotalAbs=0   NetAbs=0   SpecCamber=0
   Frame=129   DesignSect="HRS 90X5"   FrameType="Program Determined"   Fy=0   RLLF=0   AreaRatio=0   XLMajor=0   XLMinor=0   XKMajor=0   XKMinor=0   CmMajor=0   CmMinor=0   Cb=0   Fa=0   Ft=0   Fb3=0   Fb2=0   Fv2=0   Fv3=0 _
        CheckDefl="Program Determined"   DeflType="Program Determined"   DLRat=0   SDLAndLLRat=0   LLRat=0   TotalRat=0   NetRat=0   DLAbs=0   SDLAndLLAbs=0   LLAbs=0   TotalAbs=0   NetAbs=0   SpecCamber=0
   Frame=130   DesignSect="HRS 90X5"   FrameType="Program Determined"   Fy=0   RLLF=0   AreaRatio=0   XLMajor=0   XLMinor=0   XKMajor=0   XKMinor=0   CmMajor=0   CmMinor=0   Cb=0   Fa=0   Ft=0   Fb3=0   Fb2=0   Fv2=0   Fv3=0 _
        CheckDefl="Program Determined"   DeflType="Program Determined"   DLRat=0   SDLAndLLRat=0   LLRat=0   TotalRat=0   NetRat=0   DLAbs=0   SDLAndLLAbs=0   LLAbs=0   TotalAbs=0   NetAbs=0   SpecCamber=0
   Frame=131   DesignSect="HRS 90X5"   FrameType="Program Determined"   Fy=0   RLLF=0   AreaRatio=0   XLMajor=0   XLMinor=0   XKMajor=0   XKMinor=0   CmMajor=0   CmMinor=0   Cb=0   Fa=0   Ft=0   Fb3=0   Fb2=0   Fv2=0   Fv3=0 _
        CheckDefl="Program Determined"   DeflType="Program Determined"   DLRat=0   SDLAndLLRat=0   LLRat=0   TotalRat=0   NetRat=0   DLAbs=0   SDLAndLLAbs=0   LLAbs=0   TotalAbs=0   NetAbs=0   SpecCamber=0
   Frame=132   DesignSect="HRS 90X5"   FrameType="Program Determined"   Fy=0   RLLF=0   AreaRatio=0   XLMajor=0   XLMinor=0   XKMajor=0   XKMinor=0   CmMajor=0   CmMinor=0   Cb=0   Fa=0   Ft=0   Fb3=0   Fb2=0   Fv2=0   Fv3=0 _
        CheckDefl="Program Determined"   DeflType="Program Determined"   DLRat=0   SDLAndLLRat=0   LLRat=0   TotalRat=0   NetRat=0   DLAbs=0   SDLAndLLAbs=0   LLAbs=0   TotalAbs=0   NetAbs=0   SpecCamber=0
   Frame=133   DesignSect="HRS 90X5"   FrameType="Program Determined"   Fy=0   RLLF=0   AreaRatio=0   XLMajor=0   XLMinor=0   XKMajor=0   XKMinor=0   CmMajor=0   CmMinor=0   Cb=0   Fa=0   Ft=0   Fb3=0   Fb2=0   Fv2=0   Fv3=0 _
        CheckDefl="Program Determined"   DeflType="Program Determined"   DLRat=0   SDLAndLLRat=0   LLRat=0   TotalRat=0   NetRat=0   DLAbs=0   SDLAndLLAbs=0   LLAbs=0   TotalAbs=0   NetAbs=0   SpecCamber=0
   Frame=134   DesignSect="HEB 300"   FrameType="Program Determined"   Fy=0   RLLF=0   AreaRatio=0   XLMajor=0   XLMinor=0   XKMajor=0   XKMinor=0   CmMajor=0   CmMinor=0   Cb=0   Fa=0   Ft=0   Fb3=0   Fb2=0   Fv2=0   Fv3=0 _
        CheckDefl="Program Determined"   DeflType="Program Determined"   DLRat=0   SDLAndLLRat=0   LLRat=0   TotalRat=0   NetRat=0   DLAbs=0   SDLAndLLAbs=0   LLAbs=0   TotalAbs=0   NetAbs=0   SpecCamber=0
   Frame=135   DesignSect="HEB 300"   FrameType="Program Determined"   Fy=0   RLLF=0   AreaRatio=0   XLMajor=0   XLMinor=0   XKMajor=0   XKMinor=0   CmMajor=0   CmMinor=0   Cb=0   Fa=0   Ft=0   Fb3=0   Fb2=0   Fv2=0   Fv3=0 _
        CheckDefl="Program Determined"   DeflType="Program Determined"   DLRat=0   SDLAndLLRat=0   LLRat=0   TotalRat=0   NetRat=0   DLAbs=0   SDLAndLLAbs=0   LLAbs=0   TotalAbs=0   NetAbs=0   SpecCamber=0
   Frame=140   DesignSect="Program Determined"   FrameType="Program Determined"   Fy=0   RLLF=0   AreaRatio=0   XLMajor=0   XLMinor=0   XKMajor=0   XKMinor=0   CmMajor=0   CmMinor=0   Cb=0   Fa=0   Ft=0   Fb3=0   Fb2=0   Fv2=0   Fv3=0 _
        CheckDefl="Program Determined"   DeflType="Program Determined"   DLRat=0   SDLAndLLRat=0   LLRat=0   TotalRat=0   NetRat=0   DLAbs=0   SDLAndLLAbs=0   LLAbs=0   TotalAbs=0   NetAbs=0   SpecCamber=0
   Frame=141   DesignSect="Program Determined"   FrameType="Program Determined"   Fy=0   RLLF=0   AreaRatio=0   XLMajor=0   XLMinor=0   XKMajor=0   XKMinor=0   CmMajor=0   CmMinor=0   Cb=0   Fa=0   Ft=0   Fb3=0   Fb2=0   Fv2=0   Fv3=0 _
        CheckDefl="Program Determined"   DeflType="Program Determined"   DLRat=0   SDLAndLLRat=0   LLRat=0   TotalRat=0   NetRat=0   DLAbs=0   SDLAndLLAbs=0   LLAbs=0   TotalAbs=0   NetAbs=0   SpecCamber=0
   Frame=142   DesignSect="Program Determined"   FrameType="Program Determined"   Fy=0   RLLF=0   AreaRatio=0   XLMajor=0   XLMinor=0   XKMajor=0   XKMinor=0   CmMajor=0   CmMinor=0   Cb=0   Fa=0   Ft=0   Fb3=0   Fb2=0   Fv2=0   Fv3=0 _
        CheckDefl="Program Determined"   DeflType="Program Determined"   DLRat=0   SDLAndLLRat=0   LLRat=0   TotalRat=0   NetRat=0   DLAbs=0   SDLAndLLAbs=0   LLAbs=0   TotalAbs=0   NetAbs=0   SpecCamber=0
   Frame=143   DesignSect="Program Determined"   FrameType="Program Determined"   Fy=0   RLLF=0   AreaRatio=0   XLMajor=0   XLMinor=0   XKMajor=0   XKMinor=0   CmMajor=0   CmMinor=0   Cb=0   Fa=0   Ft=0   Fb3=0   Fb2=0   Fv2=0   Fv3=0 _
        CheckDefl="Program Determined"   DeflType="Program Determined"   DLRat=0   SDLAndLLRat=0   LLRat=0   TotalRat=0   NetRat=0   DLAbs=0   SDLAndLLAbs=0   LLAbs=0   TotalAbs=0   NetAbs=0   SpecCamber=0
   Frame=144   DesignSect="Program Determined"   FrameType="Program Determined"   Fy=0   RLLF=0   AreaRatio=0   XLMajor=0   XLMinor=0   XKMajor=0   XKMinor=0   CmMajor=0   CmMinor=0   Cb=0   Fa=0   Ft=0   Fb3=0   Fb2=0   Fv2=0   Fv3=0 _
        CheckDefl="Program Determined"   DeflType="Program Determined"   DLRat=0   SDLAndLLRat=0   LLRat=0   TotalRat=0   NetRat=0   DLAbs=0   SDLAndLLAbs=0   LLAbs=0   TotalAbs=0   NetAbs=0   SpecCamber=0
   Frame=145   DesignSect="Program Determined"   FrameType="Program Determined"   Fy=0   RLLF=0   AreaRatio=0   XLMajor=0   XLMinor=0   XKMajor=0   XKMinor=0   CmMajor=0   CmMinor=0   Cb=0   Fa=0   Ft=0   Fb3=0   Fb2=0   Fv2=0   Fv3=0 _
        CheckDefl="Program Determined"   DeflType="Program Determined"   DLRat=0   SDLAndLLRat=0   LLRat=0   TotalRat=0   NetRat=0   DLAbs=0   SDLAndLLAbs=0   LLAbs=0   TotalAbs=0   NetAbs=0   SpecCamber=0
   Frame=146   DesignSect="Program Determined"   FrameType="Program Determined"   Fy=0   RLLF=0   AreaRatio=0   XLMajor=0   XLMinor=0   XKMajor=0   XKMinor=0   CmMajor=0   CmMinor=0   Cb=0   Fa=0   Ft=0   Fb3=0   Fb2=0   Fv2=0   Fv3=0 _
        CheckDefl="Program Determined"   DeflType="Program Determined"   DLRat=0   SDLAndLLRat=0   LLRat=0   TotalRat=0   NetRat=0   DLAbs=0   SDLAndLLAbs=0   LLAbs=0   TotalAbs=0   NetAbs=0   SpecCamber=0
   Frame=147   DesignSect="Program Determined"   FrameType="Program Determined"   Fy=0   RLLF=0   AreaRatio=0   XLMajor=0   XLMinor=0   XKMajor=0   XKMinor=0   CmMajor=0   CmMinor=0   Cb=0   Fa=0   Ft=0   Fb3=0   Fb2=0   Fv2=0   Fv3=0 _
        CheckDefl="Program Determined"   DeflType="Program Determined"   DLRat=0   SDLAndLLRat=0   LLRat=0   TotalRat=0   NetRat=0   DLAbs=0   SDLAndLLAbs=0   LLAbs=0   TotalAbs=0   NetAbs=0   SpecCamber=0
   Frame=148   DesignSect="Program Determined"   FrameType="Program Determined"   Fy=0   RLLF=0   AreaRatio=0   XLMajor=0   XLMinor=0   XKMajor=0   XKMinor=0   CmMajor=0   CmMinor=0   Cb=0   Fa=0   Ft=0   Fb3=0   Fb2=0   Fv2=0   Fv3=0 _
        CheckDefl="Program Determined"   DeflType="Program Determined"   DLRat=0   SDLAndLLRat=0   LLRat=0   TotalRat=0   NetRat=0   DLAbs=0   SDLAndLLAbs=0   LLAbs=0   TotalAbs=0   NetAbs=0   SpecCamber=0
   Frame=149   DesignSect="Program Determined"   FrameType="Program Determined"   Fy=0   RLLF=0   AreaRatio=0   XLMajor=0   XLMinor=0   XKMajor=0   XKMinor=0   CmMajor=0   CmMinor=0   Cb=0   Fa=0   Ft=0   Fb3=0   Fb2=0   Fv2=0   Fv3=0 _
        CheckDefl="Program Determined"   DeflType="Program Determined"   DLRat=0   SDLAndLLRat=0   LLRat=0   TotalRat=0   NetRat=0   DLAbs=0   SDLAndLLAbs=0   LLAbs=0   TotalAbs=0   NetAbs=0   SpecCamber=0
   Frame=150   DesignSect="Program Determined"   FrameType="Program Determined"   Fy=0   RLLF=0   AreaRatio=0   XLMajor=0   XLMinor=0   XKMajor=0   XKMinor=0   CmMajor=0   CmMinor=0   Cb=0   Fa=0   Ft=0   Fb3=0   Fb2=0   Fv2=0   Fv3=0 _
        CheckDefl="Program Determined"   DeflType="Program Determined"   DLRat=0   SDLAndLLRat=0   LLRat=0   TotalRat=0   NetRat=0   DLAbs=0   SDLAndLLAbs=0   LLAbs=0   TotalAbs=0   NetAbs=0   SpecCamber=0
   Frame=151   DesignSect="Program Determined"   FrameType="Program Determined"   Fy=0   RLLF=0   AreaRatio=0   XLMajor=0   XLMinor=0   XKMajor=0   XKMinor=0   CmMajor=0   CmMinor=0   Cb=0   Fa=0   Ft=0   Fb3=0   Fb2=0   Fv2=0   Fv3=0 _
        CheckDefl="Program Determined"   DeflType="Program Determined"   DLRat=0   SDLAndLLRat=0   LLRat=0   TotalRat=0   NetRat=0   DLAbs=0   SDLAndLLAbs=0   LLAbs=0   TotalAbs=0   NetAbs=0   SpecCamber=0
   Frame=152   DesignSect="Program Determined"   FrameType="Program Determined"   Fy=0   RLLF=0   AreaRatio=0   XLMajor=0   XLMinor=0   XKMajor=0   XKMinor=0   CmMajor=0   CmMinor=0   Cb=0   Fa=0   Ft=0   Fb3=0   Fb2=0   Fv2=0   Fv3=0 _
        CheckDefl="Program Determined"   DeflType="Program Determined"   DLRat=0   SDLAndLLRat=0   LLRat=0   TotalRat=0   NetRat=0   DLAbs=0   SDLAndLLAbs=0   LLAbs=0   TotalAbs=0   NetAbs=0   SpecCamber=0
   Frame=153   DesignSect="Program Determined"   FrameType="Program Determined"   Fy=0   RLLF=0   AreaRatio=0   XLMajor=0   XLMinor=0   XKMajor=0   XKMinor=0   CmMajor=0   CmMinor=0   Cb=0   Fa=0   Ft=0   Fb3=0   Fb2=0   Fv2=0   Fv3=0 _
        CheckDefl="Program Determined"   DeflType="Program Determined"   DLRat=0   SDLAndLLRat=0   LLRat=0   TotalRat=0   NetRat=0   DLAbs=0   SDLAndLLAbs=0   LLAbs=0   TotalAbs=0   NetAbs=0   SpecCamber=0
   Frame=154   DesignSect="Program Determined"   FrameType="Program Determined"   Fy=0   RLLF=0   AreaRatio=0   XLMajor=0   XLMinor=0   XKMajor=0   XKMinor=0   CmMajor=0   CmMinor=0   Cb=0   Fa=0   Ft=0   Fb3=0   Fb2=0   Fv2=0   Fv3=0 _
        CheckDefl="Program Determined"   DeflType="Program Determined"   DLRat=0   SDLAndLLRat=0   LLRat=0   TotalRat=0   NetRat=0   DLAbs=0   SDLAndLLAbs=0   LLAbs=0   TotalAbs=0   NetAbs=0   SpecCamber=0
   Frame=155   DesignSect="Program Determined"   FrameType="Program Determined"   Fy=0   RLLF=0   AreaRatio=0   XLMajor=0   XLMinor=0   XKMajor=0   XKMinor=0   CmMajor=0   CmMinor=0   Cb=0   Fa=0   Ft=0   Fb3=0   Fb2=0   Fv2=0   Fv3=0 _
        CheckDefl="Program Determined"   DeflType="Program Determined"   DLRat=0   SDLAndLLRat=0   LLRat=0   TotalRat=0   NetRat=0   DLAbs=0   SDLAndLLAbs=0   LLAbs=0   TotalAbs=0   NetAbs=0   SpecCamber=0
   Frame=156   DesignSect="Program Determined"   FrameType="Program Determined"   Fy=0   RLLF=0   AreaRatio=0   XLMajor=0   XLMinor=0   XKMajor=0   XKMinor=0   CmMajor=0   CmMinor=0   Cb=0   Fa=0   Ft=0   Fb3=0   Fb2=0   Fv2=0   Fv3=0 _
        CheckDefl="Program Determined"   DeflType="Program Determined"   DLRat=0   SDLAndLLRat=0   LLRat=0   TotalRat=0   NetRat=0   DLAbs=0   SDLAndLLAbs=0   LLAbs=0   TotalAbs=0   NetAbs=0   SpecCamber=0
   Frame=157   DesignSect="Program Determined"   FrameType="Program Determined"   Fy=0   RLLF=0   AreaRatio=0   XLMajor=0   XLMinor=0   XKMajor=0   XKMinor=0   CmMajor=0   CmMinor=0   Cb=0   Fa=0   Ft=0   Fb3=0   Fb2=0   Fv2=0   Fv3=0 _
        CheckDefl="Program Determined"   DeflType="Program Determined"   DLRat=0   SDLAndLLRat=0   LLRat=0   TotalRat=0   NetRat=0   DLAbs=0   SDLAndLLAbs=0   LLAbs=0   TotalAbs=0   NetAbs=0   SpecCamber=0
   Frame=158   DesignSect="Program Determined"   FrameType="Program Determined"   Fy=0   RLLF=0   AreaRatio=0   XLMajor=0   XLMinor=0   XKMajor=0   XKMinor=0   CmMajor=0   CmMinor=0   Cb=0   Fa=0   Ft=0   Fb3=0   Fb2=0   Fv2=0   Fv3=0 _
        CheckDefl="Program Determined"   DeflType="Program Determined"   DLRat=0   SDLAndLLRat=0   LLRat=0   TotalRat=0   NetRat=0   DLAbs=0   SDLAndLLAbs=0   LLAbs=0   TotalAbs=0   NetAbs=0   SpecCamber=0
   Frame=159   DesignSect="Program Determined"   FrameType="Program Determined"   Fy=0   RLLF=0   AreaRatio=0   XLMajor=0   XLMinor=0   XKMajor=0   XKMinor=0   CmMajor=0   CmMinor=0   Cb=0   Fa=0   Ft=0   Fb3=0   Fb2=0   Fv2=0   Fv3=0 _
        CheckDefl="Program Determined"   DeflType="Program Determined"   DLRat=0   SDLAndLLRat=0   LLRat=0   TotalRat=0   NetRat=0   DLAbs=0   SDLAndLLAbs=0   LLAbs=0   TotalAbs=0   NetAbs=0   SpecCamber=0
   Frame=160   DesignSect="Program Determined"   FrameType="Program Determined"   Fy=0   RLLF=0   AreaRatio=0   XLMajor=0   XLMinor=0   XKMajor=0   XKMinor=0   CmMajor=0   CmMinor=0   Cb=0   Fa=0   Ft=0   Fb3=0   Fb2=0   Fv2=0   Fv3=0 _
        CheckDefl="Program Determined"   DeflType="Program Determined"   DLRat=0   SDLAndLLRat=0   LLRat=0   TotalRat=0   NetRat=0   DLAbs=0   SDLAndLLAbs=0   LLAbs=0   TotalAbs=0   NetAbs=0   SpecCamber=0
   Frame=202   DesignSect="Program Determined"   FrameType="Program Determined"   Fy=0   RLLF=0   AreaRatio=0   XLMajor=0   XLMinor=0   XKMajor=0   XKMinor=0   CmMajor=0   CmMinor=0   Cb=0   Fa=0   Ft=0   Fb3=0   Fb2=0   Fv2=0   Fv3=0 _
        CheckDefl="Program Determined"   DeflType="Program Determined"   DLRat=0   SDLAndLLRat=0   LLRat=0   TotalRat=0   NetRat=0   DLAbs=0   SDLAndLLAbs=0   LLAbs=0   TotalAbs=0   NetAbs=0   SpecCamber=0
   Frame=206   DesignSect="HRS 90X5"   FrameType="Program Determined"   Fy=0   RLLF=0   AreaRatio=0   XLMajor=0   XLMinor=0   XKMajor=0   XKMinor=0   CmMajor=0   CmMinor=0   Cb=0   Fa=0   Ft=0   Fb3=0   Fb2=0   Fv2=0   Fv3=0 _
        CheckDefl="Program Determined"   DeflType="Program Determined"   DLRat=0   SDLAndLLRat=0   LLRat=0   TotalRat=0   NetRat=0   DLAbs=0   SDLAndLLAbs=0   LLAbs=0   TotalAbs=0   NetAbs=0   SpecCamber=0
   Frame=207   DesignSect="HRS 90X5"   FrameType="Program Determined"   Fy=0   RLLF=0   AreaRatio=0   XLMajor=0   XLMinor=0   XKMajor=0   XKMinor=0   CmMajor=0   CmMinor=0   Cb=0   Fa=0   Ft=0   Fb3=0   Fb2=0   Fv2=0   Fv3=0 _
        CheckDefl="Program Determined"   DeflType="Program Determined"   DLRat=0   SDLAndLLRat=0   LLRat=0   TotalRat=0   NetRat=0   DLAbs=0   SDLAndLLAbs=0   LLAbs=0   TotalAbs=0   NetAbs=0   SpecCamber=0
   Frame=211   DesignSect="Program Determined"   FrameType="Program Determined"   Fy=0   RLLF=0   AreaRatio=0   XLMajor=0   XLMinor=0   XKMajor=0   XKMinor=0   CmMajor=0   CmMinor=0   Cb=0   Fa=0   Ft=0   Fb3=0   Fb2=0   Fv2=0   Fv3=0 _
        CheckDefl="Program Determined"   DeflType="Program Determined"   DLRat=0   SDLAndLLRat=0   LLRat=0   TotalRat=0   NetRat=0   DLAbs=0   SDLAndLLAbs=0   LLAbs=0   TotalAbs=0   NetAbs=0   SpecCamber=0
   Frame=211   DesignSect="Program Determined"   FrameType="Program Determined"   Fy=0   RLLF=0   AreaRatio=0   XLMajor=0   XLMinor=0   XKMajor=0   XKMinor=0   CmMajor=0   CmMinor=0   Cb=0   Fa=0   Ft=0   Fb3=0   Fb2=0   Fv2=0   Fv3=0 _
        CheckDefl="Program Determined"   DeflType="Program Determined"   DLRat=0   SDLAndLLRat=0   LLRat=0   TotalRat=0   NetRat=0   DLAbs=0   SDLAndLLAbs=0   LLAbs=0   TotalAbs=0   NetAbs=0   SpecCamber=0
   Frame=212   DesignSect="Program Determined"   FrameType="Program Determined"   Fy=0   RLLF=0   AreaRatio=0   XLMajor=0   XLMinor=0   XKMajor=0   XKMinor=0   CmMajor=0   CmMinor=0   Cb=0   Fa=0   Ft=0   Fb3=0   Fb2=0   Fv2=0   Fv3=0 _
        CheckDefl="Program Determined"   DeflType="Program Determined"   DLRat=0   SDLAndLLRat=0   LLRat=0   TotalRat=0   NetRat=0   DLAbs=0   SDLAndLLAbs=0   LLAbs=0   TotalAbs=0   NetAbs=0   SpecCamber=0
   Frame=213   DesignSect="Program Determined"   FrameType="Program Determined"   Fy=0   RLLF=0   AreaRatio=0   XLMajor=0   XLMinor=0   XKMajor=0   XKMinor=0   CmMajor=0   CmMinor=0   Cb=0   Fa=0   Ft=0   Fb3=0   Fb2=0   Fv2=0   Fv3=0 _
        CheckDefl="Program Determined"   DeflType="Program Determined"   DLRat=0   SDLAndLLRat=0   LLRat=0   TotalRat=0   NetRat=0   DLAbs=0   SDLAndLLAbs=0   LLAbs=0   TotalAbs=0   NetAbs=0   SpecCamber=0
 
TABLE:  "PREFERENCES - ALUMINUM DESIGN - AA-ASD 2000"
   THDesign=Envelopes   FrameType="Moment Frame"   SRatioLimit=1   MaxIter=1   LatFact=1.33333333333333   UseLatFact=No   Bridge=No
 
TABLE:  "PREFERENCES - COLD FORMED DESIGN - AISI-ASD96"
   THDesign=Envelopes   FrameType="Braced Frame"   SRatioLimit=1   MaxIter=1   OmegaBS=1.67   OmegaBUS=1.67   OmegaBLTB=1.67   OmegaVS=1.67   OmegaVNS=1.5   OmegaT=1.67   OmegaC=1.8
 
TABLE:  "PREFERENCES - CONCRETE DESIGN - ACI 318-14"
   THDesign=Envelopes   NumCurves=24   NumPoints=11   MinEccen=Yes   PatLLF=0.75   UFLimit=0.95   SeisCat=D   Rho=1   Sds=0.5   PhiT=0.9   PhiCTied=0.65   PhiCSpiral=0.75   PhiV=0.75   PhiVSeismic=0.6   PhiVJoint=0.85
 
TABLE:  "PREFERENCES - DIMENSIONAL"
   MergeTol=0.001   FineGrid=0.25   Nudge=0.25   SelectTol=3   SnapTol=12   SLineThick=2   PLineThick=4   MaxFont=8   MinFont=3   AutoZoom=10   ShrinkFact=70   TextFileLen=240
 
TABLE:  "PREFERENCES - STEEL DESIGN - AISC-ASD89"
   THDesign=Envelopes   PatLLF=0.75   SRatioLimit=0.95   MaxIter=1   LatFactWind=1   LatFactSeis=1   CheckDefl=Yes   DLRat=120   SDLAndLLRat=120   LLRat=360   TotalRat=240   NetRat=240   CmOption="Program Determined"   CbOption="Program Determined"
 
TABLE:  "PROGRAM CONTROL"
   ProgramName=SAP2000   Version=20.0.0   CurrUnits="Tonf, m, C"   SteelCode=AISC-ASD89   ConcCode="ACI 318-14"   AlumCode="AA-ASD 2000"   ColdCode=AISI-ASD96   RegenHinge=Yes
 
TABLE:  "PROJECT INFORMATION"
   Item="Company Name"
   Item="Client Name"
   Item="Project Name"
   Item="Project Number"
   Item="Model Name"
   Item="Model Description"
   Item="Revision Number"
   Item="Frame Type"
   Item=Engineer
   Item=Checker
   Item=Supervisor
   Item="Issue Code"
   Item="Design Code"
 
TABLE:  "REBAR SIZES"
   RebarID=#2   Area=3.2258E-05   Diameter=0.00635
   RebarID=#3   Area=7.09675996154547E-05   Diameter=0.009525
   RebarID=#4   Area=0.000129032001922727   Diameter=0.0127
   RebarID=#5   Area=0.000199999601538181   Diameter=0.015875
   RebarID=#6   Area=0.000283870398461819   Diameter=0.01905
   RebarID=#7   Area=0.000387096015381813   Diameter=0.022225
   RebarID=#8   Area=0.000509676413843632   Diameter=0.0254
   RebarID=#9   Area=0.00064516   Diameter=0.0286512005329132
   RebarID=#10   Area=0.00081935318769455   Diameter=0.0322579995155334
   RebarID=#11   Area=0.00100644956308365   Diameter=0.0358139991521835
   RebarID=#14   Area=0.00145161   Diameter=0.0430021989583969
   RebarID=#18   Area=0.00258064   Diameter=0.0573277992248535
   RebarID=10M   Area=0.000100000002655387   Diameter=0.011300000667572
   RebarID=15M   Area=0.000200000005310774   Diameter=0.0159999999403954
   RebarID=20M   Area=0.000300000017579794   Diameter=0.0194999997854233
   RebarID=25M   Area=0.000500000022890568   Diameter=0.0252000016093254
   RebarID=30M   Area=0.000700000008974075   Diameter=0.0299000008821487
   RebarID=35M   Area=0.00100000004578114   Diameter=0.0357000011444092
   RebarID=45M   Area=0.00150000010712624   Diameter=0.0437000003576279
   RebarID=55M   Area=0.00250000007599831   Diameter=0.0564000033855438
   RebarID=6d   Area=2.83000004149973E-05   Diameter=0.006000000166893
   RebarID=8d   Area=5.02999995571375E-05   Diameter=0.00799999997019768
   RebarID=10d   Area=7.85000013634562E-05   Diameter=0.00999999977350235
   RebarID=12d   Area=0.000113000009249449   Diameter=0.012000000333786
   RebarID=14d   Area=0.000154000010818839   Diameter=0.0140000008940697
   RebarID=16d   Area=0.000201000015431643   Diameter=0.0159999999403954
   RebarID=20d   Area=0.000314000005453825   Diameter=0.0199999995470047
   RebarID=25d   Area=0.000491000008711815   Diameter=0.0250000001907349
   RebarID=26d   Area=0.000531000029001236   Diameter=0.0259999997138977
   RebarID=28d   Area=0.000616000043275356   Diameter=0.0280000017881393
   RebarID=N12   Area=0.000113000009249449   Diameter=0.012000000333786
   RebarID=N16   Area=0.000201000015431643   Diameter=0.0159999999403954
   RebarID=N20   Area=0.000314000005453825   Diameter=0.0199999995470047
   RebarID=N24   Area=0.000452000036997795   Diameter=0.024000000667572
   RebarID=N28   Area=0.000616000043275356   Diameter=0.0280000017881393
   RebarID=N32   Area=0.00080400006172657   Diameter=0.0319999998807907
   RebarID=N36   Area=0.00102000001747131   Diameter=0.036000001001358
 
TABLE:  "SOLID PROPERTY DEFINITIONS"
   SolidProp=Solid1   Material=4000Psi   MatAngleA=0   MatAngleB=0   MatAngleC=0   InComp=Yes   Color=Yellow
 
END TABLE DATA
